data_str_m1_o12004_NPO
_audit_creation_date              2015-10-01T06:31:56-0700
_symmetry_space_group_name_H-M    P1
_symmetry_Int_Tables_number       1
_space_group_crystal_system       triclinic
loop_
_symmetry_equiv_pos_as_xyz
  x,y,z
_cell_length_a                    18.5267757
_cell_length_b                    18.6138037
_cell_length_c                    9.91126878
_cell_angle_alpha                 90.9650344
_cell_angle_beta                  90.4633417
_cell_angle_gamma                 60.8078089
_cell_volume                      2983.39785692

loop_
_atom_site_label
_atom_site_type_symbol
_atom_site_description
_atom_site_fract_x
_atom_site_fract_y
_atom_site_fract_z
_atom_type_partial_charge
Zn1   Zn    Zn3+2 0.558187 0.073684 0.670895 0.000000
Zn2   Zn    Zn3+2 0.240983 0.387215 0.698540 0.000000
Zn3   Zn    Zn3+2 0.561901 0.393178 0.676673 0.000000
Zn4   Zn    Zn3+2 0.002540 0.512280 0.198189 0.000000
Zn5   Zn    Zn3+2 0.677141 0.831380 0.171104 0.000000
Zn6   Zn    Zn3+2 0.677103 0.516597 0.186994 0.000000
C1    C     C_3   0.442807 0.235352 0.307484 0.000000
N1    N     N_3   0.383667 0.264898 0.417477 0.000000
C2    C     C_3   0.430608 0.246372 0.541221 0.000000
C3    C     C_R   0.392543 0.218759 0.644381 0.000000
N2    N     N_R   0.315187 0.263224 0.701117 0.000000
C4    C     C_R   0.314204 0.209099 0.790717 0.000000
C5    C     C_R   0.256482 0.221339 0.888191 0.000000
C6    C     C_R   0.273534 0.157610 0.975473 0.000000
C7    C     C_R   0.348292 0.084786 0.969000 0.000000
C8    C     C_R   0.407987 0.075402 0.877203 0.000000
C9    C     C_R   0.388698 0.138531 0.789993 0.000000
N3    N     N_R   0.439609 0.144621 0.702102 0.000000
H1    H     H_    0.414367 0.270318 0.215330 0.000000
H2    H     H_    0.495929 0.244873 0.333525 0.000000
H3    H     H_    0.461827 0.169833 0.286952 0.000000
H4    H     H_    0.354687 0.229143 0.417377 0.000000
H5    H     H_    0.492243 0.193268 0.520670 0.000000
H6    H     H_    0.439157 0.298032 0.576989 0.000000
H7    H     H_    0.200354 0.278085 0.901806 0.000000
H8    H     H_    0.228631 0.165333 0.051383 0.000000
H9    H     H_    0.360780 0.036134 0.038388 0.000000
H10   H     H_    0.467807 0.020484 0.874698 0.000000
C10   C     C_3   0.623717 0.208987 0.950427 0.000000
N4    N     N_3   0.543581 0.214511 0.930398 0.000000
C11   C     C_3   0.508998 0.264421 0.812452 0.000000
C12   C     C_R   0.569474 0.230644 0.700343 0.000000
N5    N     N_R   0.605536 0.273869 0.653454 0.000000
C13   C     C_R   0.669053 0.218326 0.580712 0.000000
C14   C     C_R   0.734345 0.225725 0.534652 0.000000
C15   C     C_R   0.790630 0.163331 0.452097 0.000000
C16   C     C_R   0.778152 0.097620 0.417220 0.000000
C17   C     C_R   0.715077 0.089133 0.476088 0.000000
C18   C     C_R   0.665761 0.147262 0.570280 0.000000
N6    N     N_R   0.604458 0.151515 0.650374 0.000000
H11   H     H_    0.650450 0.181086 0.048750 0.000000
H12   H     H_    0.666549 0.170454 0.869125 0.000000
H13   H     H_    0.615274 0.271795 0.947203 0.000000
H14   H     H_    0.505882 0.247737 0.011568 0.000000
H15   H     H_    0.449477 0.268997 0.788454 0.000000
H16   H     H_    0.499115 0.326764 0.835201 0.000000
H17   H     H_    0.741807 0.277770 0.565330 0.000000
H18   H     H_    0.842129 0.167444 0.410053 0.000000
H19   H     H_    0.818323 0.052328 0.343904 0.000000
H20   H     H_    0.701914 0.043176 0.437323 0.000000
C19   C     C_3   0.865135 0.871410 0.495011 0.000000
N7    N     N_3   0.788514 0.905556 0.418981 0.000000
C20   C     C_3   0.722324 0.921532 0.512804 0.000000
C21   C     C_R   0.641653 0.951705 0.439945 0.000000
N8    N     N_R   0.571931 0.015248 0.495272 0.000000
C22   C     C_R   0.510618 0.018340 0.417896 0.000000
C23   C     C_R   0.426498 0.063694 0.438549 0.000000
C24   C     C_R   0.375264 0.045840 0.359602 0.000000
C25   C     C_R   0.408634 0.981956 0.265799 0.000000
C26   C     C_R   0.493113 0.938541 0.246118 0.000000
C27   C     C_R   0.542471 0.958983 0.321027 0.000000
N9    N     N_R   0.625560 0.916361 0.327040 0.000000
H21   H     H_    0.916864 0.859601 0.426354 0.000000
H22   H     H_    0.860249 0.915745 0.575383 0.000000
H23   H     H_    0.877018 0.812894 0.541285 0.000000
H24   H     H_    0.792655 0.861567 0.348492 0.000000
H25   H     H_    0.736780 0.869795 0.578341 0.000000
H26   H     H_    0.716757 0.967665 0.590404 0.000000
H27   H     H_    0.399448 0.110145 0.515322 0.000000
H28   H     H_    0.309180 0.079227 0.375789 0.000000
H29   H     H_    0.368859 0.963798 0.212380 0.000000
H30   H     H_    0.520901 0.885113 0.184345 0.000000
C28   C     C_3   0.611712 0.104294 0.228943 0.000000
N10   N     N_3   0.612960 0.034141 0.161406 0.000000
C29   C     C_3   0.653598 0.023997 0.032578 0.000000
C30   C     C_R   0.638929 0.967098 0.946478 0.000000
N11   N     N_R   0.655603 0.890739 0.990500 0.000000
C31   C     C_R   0.633043 0.860950 0.883902 0.000000
C32   C     C_R   0.641497 0.784305 0.868376 0.000000
C33   C     C_R   0.608930 0.768135 0.752425 0.000000
C34   C     C_R   0.564048 0.830350 0.662003 0.000000
C35   C     C_R   0.557834 0.906850 0.679648 0.000000
C36   C     C_R   0.599022 0.918138 0.786398 0.000000
N12   N     N_R   0.603982 0.986040 0.818889 0.000000
H31   H     H_    0.569117 0.160573 0.174359 0.000000
H32   H     H_    0.589528 0.108985 0.333737 0.000000
H33   H     H_    0.674823 0.096944 0.229297 0.000000
H34   H     H_    0.551706 0.049364 0.141891 0.000000
H35   H     H_    0.628303 0.083156 0.981244 0.000000
H36   H     H_    0.720953 0.998444 0.048865 0.000000
H37   H     H_    0.676881 0.738474 0.941374 0.000000
H38   H     H_    0.615958 0.708090 0.731426 0.000000
H39   H     H_    0.533886 0.818871 0.577114 0.000000
H40   H     H_    0.516830 0.956660 0.617212 0.000000
C37   C     C_3   0.141758 0.647848 0.310942 0.000000
N13   N     N_3   0.102053 0.598076 0.328986 0.000000
C38   C     C_3   0.164832 0.518926 0.378044 0.000000
C39   C     C_R   0.125677 0.472073 0.435005 0.000000
N14   N     N_R   0.149422 0.427569 0.553492 0.000000
C40   C     C_R   0.087470 0.410515 0.571983 0.000000
C41   C     C_R   0.076611 0.370990 0.678057 0.000000
C42   C     C_R   0.004765 0.365644 0.683220 0.000000
C43   C     C_R   0.943105 0.405164 0.587773 0.000000
C44   C     C_R   0.954281 0.447842 0.484472 0.000000
C45   C     C_R   0.030244 0.442995 0.472757 0.000000
N15   N     N_R   0.054868 0.478030 0.379975 0.000000
H41   H     H_    0.102422 0.701117 0.246596 0.000000
H42   H     H_    0.150711 0.670240 0.410706 0.000000
H43   H     H_    0.202756 0.609939 0.262269 0.000000
H44   H     H_    0.083538 0.588051 0.234000 0.000000
H45   H     H_    0.202832 0.485285 0.289514 0.000000
H46   H     H_    0.200064 0.530645 0.458162 0.000000
H47   H     H_    0.121473 0.347433 0.756426 0.000000
H48   H     H_    0.994262 0.335387 0.766928 0.000000
H49   H     H_    0.883769 0.408316 0.600962 0.000000
H50   H     H_    0.902496 0.490413 0.425448 0.000000
C46   C     C_3   0.922766 0.548258 0.741826 0.000000
N16   N     N_3   0.978503 0.516569 0.855389 0.000000
C47   C     C_3   0.047674 0.530857 0.834368 0.000000
C48   C     C_R   0.113004 0.478638 0.928590 0.000000
N17   N     N_R   0.099019 0.466591 0.060886 0.000000
C49   C     C_R   0.172172 0.400402 0.093961 0.000000
C50   C     C_R   0.190328 0.350006 0.203301 0.000000
C51   C     C_R   0.261098 0.274066 0.199308 0.000000
C52   C     C_R   0.317662 0.253207 0.095443 0.000000
C53   C     C_R   0.301560 0.307022 0.991163 0.000000
C54   C     C_R   0.226281 0.377132 0.989390 0.000000
N18   N     N_R   0.190157 0.423530 0.882042 0.000000
H51   H     H_    0.877320 0.613507 0.761836 0.000000
H52   H     H_    0.957950 0.539848 0.647550 0.000000
H53   H     H_    0.888477 0.514071 0.731836 0.000000
H54   H     H_    0.001515 0.453086 0.857665 0.000000
H55   H     H_    0.072799 0.511786 0.731034 0.000000
H56   H     H_    0.030918 0.596103 0.850404 0.000000
H57   H     H_    0.149929 0.364410 0.286627 0.000000
H58   H     H_    0.270773 0.229865 0.275991 0.000000
H59   H     H_    0.373656 0.194283 0.094899 0.000000
H60   H     H_    0.345558 0.293143 0.911671 0.000000
C55   C     C_3   0.307709 0.551306 0.046248 0.000000
N19   N     N_3   0.300059 0.519063 0.915673 0.000000
C56   C     C_3   0.376422 0.443586 0.886096 0.000000
C57   C     C_R   0.381308 0.429467 0.737471 0.000000
N20   N     N_R   0.320495 0.425208 0.664098 0.000000
C58   C     C_R   0.341515 0.427227 0.536131 0.000000
C59   C     C_R   0.311659 0.406650 0.424020 0.000000
C60   C     C_R   0.345240 0.406453 0.300106 0.000000
C61   C     C_R   0.410871 0.421921 0.292754 0.000000
C62   C     C_R   0.446172 0.432785 0.409196 0.000000
C63   C     C_R   0.411513 0.432675 0.531625 0.000000
N21   N     N_R   0.441125 0.430027 0.657899 0.000000
H61   H     H_    0.253740 0.613417 0.061739 0.000000
H62   H     H_    0.308840 0.510356 0.126905 0.000000
H63   H     H_    0.364707 0.556702 0.050099 0.000000
H64   H     H_    0.293759 0.562014 0.843588 0.000000
H65   H     H_    0.429969 0.450547 0.919497 0.000000
H66   H     H_    0.376516 0.391648 0.938989 0.000000
H67   H     H_    0.265436 0.387955 0.432635 0.000000
H68   H     H_    0.320336 0.394431 0.208762 0.000000
H69   H     H_    0.436503 0.422663 0.195669 0.000000
H70   H     H_    0.496266 0.444874 0.399424 0.000000
C64   C     C_3   0.597482 0.320317 0.188924 0.000000
N22   N     N_3   0.609365 0.329871 0.331241 0.000000
C65   C     C_3   0.670265 0.357378 0.338966 0.000000
C66   C     C_R   0.639496 0.433930 0.421850 0.000000
N23   N     N_R   0.627396 0.503452 0.357209 0.000000
C67   C     C_R   0.559815 0.563849 0.417862 0.000000
C68   C     C_R   0.510945 0.643407 0.375077 0.000000
C69   C     C_R   0.433796 0.689858 0.432561 0.000000
C70   C     C_R   0.405473 0.655577 0.526877 0.000000
C71   C     C_R   0.455986 0.576160 0.570225 0.000000
C72   C     C_R   0.534773 0.532150 0.517880 0.000000
N24   N     N_R   0.587466 0.450744 0.530234 0.000000
H71   H     H_    0.558994 0.290119 0.176581 0.000000
H72   H     H_    0.566432 0.381363 0.140321 0.000000
H73   H     H_    0.659052 0.281648 0.142465 0.000000
H74   H     H_    0.635815 0.270850 0.369872 0.000000
H75   H     H_    0.731909 0.306318 0.363515 0.000000
H76   H     H_    0.674372 0.378195 0.238391 0.000000
H77   H     H_    0.528784 0.669616 0.295864 0.000000
H78   H     H_    0.393917 0.751990 0.399151 0.000000
H79   H     H_    0.343566 0.691027 0.566917 0.000000
H80   H     H_    0.430914 0.550536 0.638186 0.000000
C73   C     C_3   0.471003 0.680517 0.775506 0.000000
N25   N     N_3   0.484286 0.613043 0.863291 0.000000
C74   C     C_3   0.572304 0.557318 0.859481 0.000000
C75   C     C_R   0.598740 0.478022 0.927119 0.000000
N26   N     N_R   0.652908 0.457902 0.034070 0.000000
C76   C     C_R   0.703435 0.376931 0.015708 0.000000
C77   C     C_R   0.776013 0.328476 0.082811 0.000000
C78   C     C_R   0.824604 0.248084 0.040308 0.000000
C79   C     C_R   0.801636 0.219049 0.928101 0.000000
C80   C     C_R   0.729648 0.269792 0.859608 0.000000
C81   C     C_R   0.679180 0.348571 0.907931 0.000000
N27   N     N_R   0.610226 0.410280 0.851991 0.000000
H81   H     H_    0.404050 0.724717 0.766149 0.000000
H82   H     H_    0.505527 0.711051 0.814228 0.000000
H83   H     H_    0.498667 0.657169 0.675365 0.000000
H84   H     H_    0.453468 0.583002 0.825912 0.000000
H85   H     H_    0.594185 0.544098 0.753566 0.000000
H86   H     H_    0.602205 0.586998 0.914264 0.000000
H87   H     H_    0.794526 0.352099 0.166925 0.000000
H88   H     H_    0.881603 0.208583 0.092369 0.000000
H89   H     H_    0.841151 0.156870 0.891820 0.000000
H90   H     H_    0.716951 0.246728 0.769965 0.000000
C82   C     C_3   0.732293 0.581290 0.832475 0.000000
N28   N     N_3   0.783953 0.519163 0.927753 0.000000
C83   C     C_3   0.814689 0.556978 0.024906 0.000000
C84   C     C_R   0.846714 0.501546 0.140792 0.000000
N29   N     N_R   0.799959 0.473609 0.203817 0.000000
C85   C     C_R   0.855892 0.412471 0.280050 0.000000
C86   C     C_R   0.841123 0.368934 0.375351 0.000000
C87   C     C_R   0.908263 0.307249 0.441349 0.000000
C88   C     C_R   0.987655 0.292835 0.413907 0.000000
C89   C     C_R   0.000362 0.341482 0.323409 0.000000
C90   C     C_R   0.932956 0.401315 0.257265 0.000000
N30   N     N_R   0.928314 0.461624 0.177853 0.000000
H91   H     H_    0.709170 0.554109 0.754647 0.000000
H92   H     H_    0.681110 0.630423 0.889014 0.000000
H93   H     H_    0.766589 0.608402 0.784607 0.000000
H94   H     H_    0.834076 0.471664 0.877175 0.000000
H95   H     H_    0.864270 0.564917 0.979854 0.000000
H96   H     H_    0.764641 0.617868 0.056734 0.000000
H97   H     H_    0.778984 0.385139 0.401660 0.000000
H98   H     H_    0.898784 0.271205 0.516434 0.000000
H99   H     H_    0.039766 0.244644 0.466241 0.000000
H100  H     H_    0.061542 0.330296 0.303432 0.000000
C91   C     C_3   0.834923 0.818325 0.856319 0.000000
N31   N     N_3   0.878022 0.771846 0.974804 0.000000
C92   C     C_3   0.865372 0.700946 0.988844 0.000000
C93   C     C_R   0.858992 0.689739 0.134452 0.000000
N32   N     N_R   0.924383 0.635121 0.212096 0.000000
C94   C     C_R   0.899113 0.664783 0.338084 0.000000
C95   C     C_R   0.942052 0.641368 0.457691 0.000000
C96   C     C_R   0.900790 0.679369 0.574679 0.000000
C97   C     C_R   0.815843 0.730760 0.573020 0.000000
C98   C     C_R   0.774945 0.756959 0.450805 0.000000
C99   C     C_R   0.820689 0.727812 0.335834 0.000000
N33   N     N_R   0.794402 0.747943 0.208945 0.000000
H101  H     H_    0.832545 0.879011 0.860844 0.000000
H102  H     H_    0.869115 0.785412 0.764400 0.000000
H103  H     H_    0.770753 0.828784 0.853168 0.000000
H104  H     H_    0.850828 0.810223 0.058636 0.000000
H105  H     H_    0.808420 0.710476 0.936578 0.000000
H106  H     H_    0.919007 0.645753 0.948767 0.000000
H107  H     H_    0.006910 0.601310 0.464907 0.000000
H108  H     H_    0.936249 0.667330 0.666558 0.000000
H109  H     H_    0.782381 0.752315 0.667059 0.000000
H110  H     H_    0.709560 0.799581 0.445097 0.000000
C100  C     C_3   0.776878 0.615877 0.520852 0.000000
N34   N     N_3   0.766629 0.640702 0.381266 0.000000
C101  C     C_3   0.679644 0.674409 0.354692 0.000000
C102  C     C_R   0.661600 0.682256 0.208412 0.000000
N35   N     N_R   0.626836 0.758273 0.151945 0.000000
C103  C     C_R   0.565967 0.759709 0.073137 0.000000
C104  C     C_R   0.505370 0.823124 0.999899 0.000000
C105  C     C_R   0.435461 0.817229 0.966924 0.000000
C106  C     C_R   0.429313 0.748323 0.002878 0.000000
C107  C     C_R   0.497361 0.680085 0.055087 0.000000
C108  C     C_R   0.566384 0.686827 0.082593 0.000000
N36   N     N_R   0.631705 0.634361 0.154939 0.000000
H111  H     H_    0.765575 0.562963 0.531572 0.000000
H112  H     H_    0.840194 0.597566 0.553029 0.000000
H113  H     H_    0.732358 0.668328 0.584124 0.000000
H114  H     H_    0.797439 0.587607 0.322430 0.000000
H115  H     H_    0.658476 0.632961 0.396514 0.000000
H116  H     H_    0.643913 0.735250 0.404832 0.000000
H117  H     H_    0.508348 0.878179 0.976374 0.000000
H118  H     H_    0.383860 0.868104 0.918209 0.000000
H119  H     H_    0.372528 0.746672 0.984674 0.000000
H120  H     H_    0.493756 0.626591 0.086903 0.000000

loop_
_geom_bond_atom_site_label_1
_geom_bond_atom_site_label_2
_geom_bond_distance
_geom_bond_site_symmetry_2
_ccdc_geom_bond_type
Zn1   N3    1.958 .      S
Zn1   N6    2.025 .      S
Zn1   N8    1.988 .      S
Zn1   N12   2.060 1_545  S
Zn2   N2    2.031 .      S
Zn2   N14   2.065 .      S
Zn2   N18   2.004 .      S
Zn2   N20   1.954 .      S
Zn3   N5    1.968 .      S
Zn3   N21   2.003 .      S
Zn3   N24   2.009 .      S
Zn3   N27   2.039 .      S
Zn4   N15   2.000 .      S
Zn4   N17   2.071 .      S
Zn4   N30   2.019 1_455  S
Zn4   N32   2.027 1_455  S
Zn5   N9    2.067 .      S
Zn5   N11   2.052 1_554  S
Zn5   N33   1.997 .      S
Zn5   N35   1.996 .      S
Zn6   N23   2.003 .      S
Zn6   N26   2.026 .      S
Zn6   N29   2.018 .      S
Zn6   N36   1.958 .      S
C1    N1    1.450 .      S
C1    H1    1.101 .      S
C1    H2    1.110 .      S
C1    H3    1.107 .      S
N1    C2    1.444 .      S
N1    H4    1.039 .      S
C2    C3    1.480 .      S
C2    H5    1.104 .      S
C2    H6    1.101 .      S
C5    H7    1.068 .      S
C6    H8    1.081 1_556  S
C7    H9    1.077 1_556  S
C8    H10   1.081 .      S
H8    C6    1.081 1_554  S
H9    C7    1.077 1_554  S
C10   N4    1.450 .      S
C10   H11   1.106 1_556  S
C10   H12   1.109 .      S
C10   H13   1.102 .      S
N4    C11   1.444 .      S
N4    H14   1.043 1_556  S
C11   C12   1.481 .      S
C11   H15   1.088 .      S
C11   H16   1.103 .      S
C14   H17   1.082 .      S
C15   H18   1.081 .      S
C16   H19   1.081 .      S
C17   H20   1.063 .      S
H11   C10   1.106 1_554  S
H14   N4    1.043 1_554  S
C19   N7    1.451 .      S
C19   H21   1.109 .      S
C19   H22   1.109 .      S
C19   H23   1.107 .      S
N7    C20   1.453 .      S
N7    H24   1.042 .      S
C20   C21   1.499 .      S
C20   H25   1.090 .      S
C20   H26   1.110 .      S
C23   H27   1.067 .      S
C24   H28   1.081 .      S
C25   H29   1.081 .      S
C26   H30   1.055 .      S
C28   N10   1.447 .      S
C28   H31   1.104 .      S
C28   H32   1.106 .      S
C28   H33   1.109 .      S
N10   C29   1.450 .      S
N10   H34   1.044 .      S
C29   C30   1.473 1_544  S
C29   H35   1.097 1_554  S
C29   H36   1.109 1_545  S
C30   C29   1.473 1_566  S
N11   Zn5   2.052 1_556  S
C32   H37   1.072 .      S
C33   H38   1.077 .      S
C34   H39   1.081 .      S
C35   H40   1.070 .      S
N12   Zn1   2.060 1_565  S
H35   C29   1.097 1_556  S
H36   C29   1.109 1_565  S
C37   N13   1.450 .      S
C37   H41   1.109 .      S
C37   H42   1.109 .      S
C37   H43   1.108 .      S
N13   C38   1.450 .      S
N13   H44   1.044 .      S
C38   C39   1.499 .      S
C38   H45   1.104 .      S
C38   H46   1.109 .      S
C41   H47   1.064 .      S
C42   H48   1.081 1_455  S
C43   H49   1.081 .      S
C44   H50   1.075 .      S
H48   C42   1.081 1_655  S
C46   N16   1.446 .      S
C46   H51   1.105 .      S
C46   H52   1.108 .      S
C46   H53   1.100 .      S
N16   C47   1.447 1_655  S
N16   H54   1.043 1_655  S
C47   N16   1.447 1_455  S
C47   C48   1.465 .      S
C47   H55   1.107 .      S
C47   H56   1.106 .      S
C50   H57   1.059 .      S
C51   H58   1.078 .      S
C52   H59   1.081 .      S
C53   H60   1.072 .      S
H54   N16   1.043 1_455  S
C55   N19   1.452 1_554  S
C55   H61   1.109 .      S
C55   H62   1.107 .      S
C55   H63   1.109 .      S
N19   C55   1.452 1_556  S
N19   C56   1.454 .      S
N19   H64   1.044 .      S
C56   C57   1.488 .      S
C56   H65   1.109 .      S
C56   H66   1.107 .      S
C59   H67   1.075 .      S
C60   H68   1.082 .      S
C61   H69   1.080 .      S
C62   H70   1.062 .      S
C64   N22   1.447 .      S
C64   H71   1.108 .      S
C64   H72   1.109 .      S
C64   H73   1.108 .      S
N22   C65   1.450 .      S
N22   H74   1.039 .      S
C65   C66   1.485 .      S
C65   H75   1.101 .      S
C65   H76   1.092 .      S
C68   H77   1.067 .      S
C69   H78   1.081 .      S
C70   H79   1.081 .      S
C71   H80   1.063 .      S
C73   N25   1.458 .      S
C73   H81   1.109 .      S
C73   H82   1.106 .      S
C73   H83   1.101 .      S
N25   C74   1.444 .      S
N25   H84   1.038 .      S
C74   C75   1.480 .      S
C74   H85   1.108 .      S
C74   H86   1.091 .      S
C77   H87   1.066 .      S
C78   H88   1.081 .      S
C79   H89   1.081 .      S
C80   H90   1.054 .      S
C82   N28   1.445 .      S
C82   H91   1.108 .      S
C82   H92   1.093 .      S
C82   H93   1.100 .      S
N28   C83   1.451 1_556  S
N28   H94   1.043 .      S
C83   N28   1.451 1_554  S
C83   C84   1.472 .      S
C83   H95   1.098 1_554  S
C83   H96   1.101 .      S
C86   H97   1.071 .      S
C87   H98   1.081 .      S
C88   H99   1.081 1_655  S
C89   H100  1.067 .      S
N30   Zn4   2.019 1_655  S
H95   C83   1.098 1_556  S
H99   C88   1.081 1_455  S
C91   N31   1.453 .      S
C91   H101  1.109 .      S
C91   H102  1.104 .      S
C91   H103  1.107 .      S
N31   C92   1.458 .      S
N31   H104  1.044 1_556  S
C92   C93   1.476 1_556  S
C92   H105  1.107 .      S
C92   H106  1.094 .      S
C93   C92   1.476 1_554  S
N32   Zn4   2.027 1_655  S
C95   H107  1.064 1_655  S
C96   H108  1.079 .      S
C97   H109  1.081 .      S
C98   H110  1.078 .      S
H104  N31   1.044 1_554  S
H107  C95   1.064 1_455  S
C100  N34   1.448 .      S
C100  H111  1.109 .      S
C100  H112  1.096 .      S
C100  H113  1.109 .      S
N34   C101  1.440 .      S
N34   H114  1.038 .      S
C101  C102  1.479 .      S
C101  H115  1.109 .      S
C101  H116  1.106 .      S
C104  H117  1.082 .      S
C105  H118  1.081 .      S
C106  H119  1.081 1_554  S
C107  H120  1.082 .      S
H119  C106  1.081 1_556  S
C3    N2    1.377 .      A
C3    N3    1.355 .      A
N2    C4    1.361 .      A
C4    C5    1.379 .      A
C4    C9    1.364 .      A
C5    C6    1.386 .      A
C6    C7    1.388 .      A
C7    C8    1.380 .      A
C8    C9    1.369 .      A
C9    N3    1.335 .      A
C12   N5    1.361 .      A
C12   N6    1.373 .      A
N5    C13   1.332 .      A
C13   C14   1.365 .      A
C13   C18   1.356 .      A
C14   C15   1.381 .      A
C15   C16   1.389 .      A
C16   C17   1.388 .      A
C17   C18   1.376 .      A
C18   N6    1.361 .      A
C21   N8    1.367 1_565  A
C21   N9    1.391 .      A
N8    C21   1.367 1_545  A
N8    C22   1.344 .      A
C22   C23   1.378 .      A
C22   C27   1.352 1_545  A
C23   C24   1.382 .      A
C24   C25   1.384 1_545  A
C25   C24   1.384 1_565  A
C25   C26   1.381 .      A
C26   C27   1.361 .      A
C27   C22   1.352 1_565  A
C27   N9    1.346 .      A
C30   N11   1.377 .      A
C30   N12   1.386 .      A
N11   C31   1.341 .      A
C31   C32   1.363 .      A
C31   C36   1.354 .      A
C32   C33   1.389 .      A
C33   C34   1.385 .      A
C34   C35   1.380 .      A
C35   C36   1.372 .      A
C36   N12   1.345 .      A
C39   N14   1.388 .      A
C39   N15   1.371 .      A
N14   C40   1.346 .      A
C40   C41   1.364 .      A
C40   C45   1.354 .      A
C41   C42   1.384 .      A
C42   C43   1.388 1_455  A
C43   C42   1.388 1_655  A
C43   C44   1.383 .      A
C44   C45   1.371 1_655  A
C45   C44   1.371 1_455  A
C45   N15   1.340 .      A
C48   N17   1.382 1_556  A
C48   N18   1.368 .      A
N17   C48   1.382 1_554  A
N17   C49   1.356 .      A
C49   C50   1.374 .      A
C49   C54   1.358 1_554  A
C50   C51   1.382 .      A
C51   C52   1.384 .      A
C52   C53   1.378 1_554  A
C53   C52   1.378 1_556  A
C53   C54   1.369 .      A
C54   C49   1.358 1_556  A
C54   N18   1.335 .      A
C57   N20   1.370 .      A
C57   N21   1.370 .      A
N20   C58   1.336 .      A
C58   C59   1.367 .      A
C58   C63   1.350 .      A
C59   C60   1.380 .      A
C60   C61   1.382 .      A
C61   C62   1.382 .      A
C62   C63   1.378 .      A
C63   N21   1.354 .      A
C66   N23   1.370 .      A
C66   N24   1.376 .      A
N23   C67   1.345 .      A
C67   C68   1.378 .      A
C67   C72   1.357 .      A
C68   C69   1.381 .      A
C69   C70   1.382 .      A
C70   C71   1.382 .      A
C71   C72   1.379 .      A
C72   N24   1.351 .      A
C75   N26   1.379 1_556  A
C75   N27   1.378 .      A
N26   C75   1.379 1_554  A
N26   C76   1.341 .      A
C76   C77   1.374 .      A
C76   C81   1.351 1_554  A
C77   C78   1.378 .      A
C78   C79   1.381 1_554  A
C79   C78   1.381 1_556  A
C79   C80   1.382 .      A
C80   C81   1.378 .      A
C81   C76   1.351 1_556  A
C81   N27   1.355 .      A
C84   N29   1.367 .      A
C84   N30   1.370 .      A
N29   C85   1.344 .      A
C85   C86   1.367 .      A
C85   C90   1.359 .      A
C86   C87   1.383 .      A
C87   C88   1.389 .      A
C88   C89   1.385 1_655  A
C89   C88   1.385 1_455  A
C89   C90   1.373 1_455  A
C90   C89   1.373 1_655  A
C90   N30   1.350 .      A
C93   N32   1.380 .      A
C93   N33   1.369 .      A
N32   C94   1.348 .      A
C94   C95   1.376 .      A
C94   C99   1.351 .      A
C95   C96   1.374 .      A
C96   C97   1.387 .      A
C97   C98   1.387 .      A
C98   C99   1.363 .      A
C99   N33   1.337 .      A
C102  N35   1.365 .      A
C102  N36   1.358 .      A
N35   C103  1.356 .      A
C103  C104  1.380 1_554  A
C103  C108  1.358 .      A
C104  C103  1.380 1_556  A
C104  C105  1.388 .      A
C105  C106  1.394 1_556  A
C106  C105  1.394 1_554  A
C106  C107  1.386 .      A
C107  C108  1.369 .      A
C108  N36   1.338 .      A
