data_str_m1_o12216_NPO
_audit_creation_date              2015-10-01T06:25:10-0700
_symmetry_space_group_name_H-M    P1
_symmetry_Int_Tables_number       1
_space_group_crystal_system       triclinic
loop_
_symmetry_equiv_pos_as_xyz
  x,y,z
_cell_length_a                    18.2803158
_cell_length_b                    18.4633701
_cell_length_c                    9.81849932
_cell_angle_alpha                 90.9663289
_cell_angle_beta                  90.4614975
_cell_angle_gamma                 60.9761662
_cell_volume                      2897.32411778

loop_
_atom_site_label
_atom_site_type_symbol
_atom_site_description
_atom_site_fract_x
_atom_site_fract_y
_atom_site_fract_z
_atom_type_partial_charge
Zn1   Zn    Zn3+2 0.553148 0.078179 0.686282 0.000000
Zn2   Zn    Zn3+2 0.229295 0.393657 0.742289 0.000000
Zn3   Zn    Zn3+2 0.534234 0.415417 0.683002 0.000000
Zn4   Zn    Zn3+2 0.988061 0.514358 0.244117 0.000000
Zn5   Zn    Zn3+2 0.683490 0.839871 0.178370 0.000000
Zn6   Zn    Zn3+2 0.653211 0.534903 0.181786 0.000000
C1    C     C_3   0.178624 0.141584 0.024710 0.000000
C2    C     C_R   0.247323 0.140242 0.942833 0.000000
C3    C     C_R   0.316391 0.064880 0.909271 0.000000
C4    C     C_R   0.380926 0.062363 0.833396 0.000000
C5    C     C_R   0.375355 0.135915 0.795610 0.000000
N1    N     N_R   0.430853 0.147135 0.722613 0.000000
C6    C     C_R   0.386148 0.226949 0.682407 0.000000
N2    N     N_R   0.308183 0.269274 0.741468 0.000000
C7    C     C_R   0.303316 0.209035 0.812154 0.000000
C8    C     C_R   0.239477 0.213529 0.893384 0.000000
S1    S     S_3+2 0.416007 0.256801 0.529971 0.000000
O1    O     O_2   0.498152 0.184139 0.477386 0.000000
O2    O     O_2   0.440452 0.324942 0.545017 0.000000
O3    O     O_3   0.352440 0.278900 0.390928 0.000000
H1    H     H_    0.152883 0.105810 0.970183 0.000000
H2    H     H_    0.128333 0.206425 0.040176 0.000000
H3    H     H_    0.203458 0.113148 0.124946 0.000000
H4    H     H_    0.319010 0.007814 0.940558 0.000000
H5    H     H_    0.430117 0.004776 0.794417 0.000000
H6    H     H_    0.181967 0.270381 0.912459 0.000000
H7    H     H_    0.376176 0.226074 0.338640 0.000000
C9    C     C_3   0.842409 0.219006 0.439298 0.000000
C10   C     C_R   0.774696 0.201527 0.480916 0.000000
C11   C     C_R   0.789309 0.120618 0.482324 0.000000
C12   C     C_R   0.729791 0.102094 0.532252 0.000000
C13   C     C_R   0.654321 0.165748 0.576647 0.000000
N3    N     N_R   0.592301 0.162961 0.648314 0.000000
C14   C     C_R   0.546375 0.242986 0.694103 0.000000
N4    N     N_R   0.572959 0.295349 0.645577 0.000000
C15   C     C_R   0.641140 0.244936 0.573683 0.000000
C16   C     C_R   0.699406 0.265051 0.526934 0.000000
S2    S     S_3+2 0.484915 0.267732 0.843722 0.000000
O4    O     O_2   0.391753 0.325984 0.818837 0.000000
O5    O     O_2   0.508224 0.320457 0.938129 0.000000
O6    O     O_3   0.491250 0.190818 0.946246 0.000000
H8    H     H_    0.897558 0.184952 0.506089 0.000000
H9    H     H_    0.820508 0.286394 0.448597 0.000000
H10   H     H_    0.860084 0.198056 0.332631 0.000000
H11   H     H_    0.849881 0.070850 0.451882 0.000000
H12   H     H_    0.748425 0.039276 0.549748 0.000000
H13   H     H_    0.688748 0.327886 0.534094 0.000000
H14   H     H_    0.531431 0.186030 0.018408 0.000000
C17   C     C_3   0.286299 0.033449 0.465741 0.000000
C18   C     C_R   0.373822 0.005309 0.422063 0.000000
C19   C     C_R   0.405343 0.953935 0.307859 0.000000
C20   C     C_R   0.488466 0.921410 0.271324 0.000000
C21   C     C_R   0.537902 0.941297 0.352148 0.000000
N5    N     N_R   0.620778 0.911861 0.341204 0.000000
C22   C     C_R   0.637517 0.949388 0.449981 0.000000
N6    N     N_R   0.568137 0.002877 0.523445 0.000000
C23   C     C_R   0.506599 0.994558 0.460678 0.000000
C24   C     C_R   0.424082 0.027825 0.498188 0.000000
S3    S     S_3+2 0.739882 0.924684 0.499571 0.000000
O7    O     O_2   0.735555 0.847363 0.454329 0.000000
O8    O     O_2   0.688921 0.948185 0.632167 0.000000
O9    O     O_3   0.683320 0.005027 0.389701 0.000000
H15   H     H_    0.243602 0.058557 0.377512 0.000000
H16   H     H_    0.268274 0.081513 0.547036 0.000000
H17   H     H_    0.281668 0.979948 0.505417 0.000000
H18   H     H_    0.364840 0.938273 0.248358 0.000000
H19   H     H_    0.513714 0.880119 0.184420 0.000000
H20   H     H_    0.399424 0.066857 0.587112 0.000000
H21   H     H_    0.690165 0.980860 0.296983 0.000000
C25   C     C_3   0.945042 0.893877 0.999620 0.000000
C26   C     C_R   0.856868 0.925810 0.955424 0.000000
C27   C     C_R   0.822992 0.987070 0.857777 0.000000
C28   C     C_R   0.740859 0.017845 0.816116 0.000000
C29   C     C_R   0.695273 0.984781 0.871249 0.000000
N7    N     N_R   0.614290 0.007755 0.848618 0.000000
C30   C     C_R   0.597473 0.965591 0.947126 0.000000
N8    N     N_R   0.666388 0.914853 0.022999 0.000000
C31   C     C_R   0.726715 0.928390 0.972187 0.000000
C32   C     C_R   0.808042 0.896762 0.015634 0.000000
S4    S     S_3+2 0.493528 0.994890 0.002108 0.000000
O10   O     O_2   0.497081 0.064577 0.924803 0.000000
O11   O     O_2   0.549522 0.981414 0.127127 0.000000
O12   O     O_3   0.538653 0.906383 0.904162 0.000000
H22   H     H_    0.987269 0.865455 0.911049 0.000000
H23   H     H_    0.960685 0.846658 0.079193 0.000000
H24   H     H_    0.953075 0.945741 0.041502 0.000000
H25   H     H_    0.860450 0.012203 0.816388 0.000000
H26   H     H_    0.711748 0.070397 0.751184 0.000000
H27   H     H_    0.833580 0.851722 0.094798 0.000000
H28   H     H_    0.559446 0.920955 0.821933 0.000000
C33   C     C_3   0.100765 0.183385 0.676496 0.000000
C34   C     C_R   0.076149 0.265150 0.615408 0.000000
C35   C     C_R   0.012826 0.297395 0.519422 0.000000
C36   C     C_R   0.996060 0.368755 0.451300 0.000000
C37   C     C_R   0.038750 0.410287 0.489724 0.000000
N9    N     N_R   0.044486 0.470448 0.422568 0.000000
C38   C     C_R   0.106597 0.477404 0.491853 0.000000
N10   N     N_R   0.138204 0.424082 0.599487 0.000000
C39   C     C_R   0.096127 0.381475 0.591025 0.000000
C40   C     C_R   0.119563 0.306791 0.648363 0.000000
S5    S     S_3+2 0.158186 0.531082 0.424969 0.000000
O13   O     O_2   0.113254 0.625822 0.441524 0.000000
O14   O     O_2   0.082828 0.549620 0.333422 0.000000
O15   O     O_3   0.123376 0.547182 0.590256 0.000000
H29   H     H_    0.046801 0.186525 0.732400 0.000000
H30   H     H_    0.153561 0.167136 0.748021 0.000000
H31   H     H_    0.120290 0.135476 0.594652 0.000000
H32   H     H_    0.980372 0.263649 0.490939 0.000000
H33   H     H_    0.952289 0.388146 0.368909 0.000000
H34   H     H_    0.176726 0.277752 0.702524 0.000000
H35   H     H_    0.169650 0.546690 0.643919 0.000000
C41   C     C_3   0.223803 0.205182 0.332933 0.000000
C42   C     C_R   0.215311 0.264024 0.225032 0.000000
C43   C     C_R   0.280936 0.244391 0.135104 0.000000
C44   C     C_R   0.272650 0.298127 0.032067 0.000000
C45   C     C_R   0.198465 0.370614 0.023520 0.000000
N11   N     N_R   0.173081 0.427414 0.925451 0.000000
C46   C     C_R   0.098319 0.489401 0.975899 0.000000
N12   N     N_R   0.076189 0.470374 0.098430 0.000000
C47   C     C_R   0.138773 0.393543 0.120212 0.000000
C48   C     C_R   0.142910 0.339578 0.217727 0.000000
S6    S     S_3+2 0.035393 0.584063 0.889223 0.000000
O16   O     O_2   0.078898 0.637293 0.886560 0.000000
O17   O     O_2   0.954877 0.641161 0.967863 0.000000
O18   O     O_3   0.005143 0.581077 0.724240 0.000000
H36   H     H_    0.219507 0.234423 0.434292 0.000000
H37   H     H_    0.285384 0.148418 0.322803 0.000000
H38   H     H_    0.172437 0.189823 0.322219 0.000000
H39   H     H_    0.338542 0.186601 0.144818 0.000000
H40   H     H_    0.325057 0.286382 0.968608 0.000000
H41   H     H_    0.091039 0.354486 0.283783 0.000000
H42   H     H_    0.010178 0.525443 0.713122 0.000000
C49   C     C_3   0.292957 0.386002 0.222388 0.000000
C50   C     C_R   0.321182 0.418415 0.337122 0.000000
C51   C     C_R   0.381137 0.442578 0.318725 0.000000
C52   C     C_R   0.413430 0.463895 0.430202 0.000000
C53   C     C_R   0.379206 0.467033 0.555942 0.000000
N13   N     N_R   0.412181 0.467362 0.678196 0.000000
C54   C     C_R   0.359993 0.458898 0.767133 0.000000
N14   N     N_R   0.301354 0.444250 0.702745 0.000000
C55   C     C_R   0.316180 0.449260 0.570824 0.000000
C56   C     C_R   0.290531 0.419033 0.464520 0.000000
S7    S     S_3+2 0.370244 0.465337 0.947629 0.000000
O19   O     O_2   0.454421 0.459847 0.986056 0.000000
O20   O     O_2   0.375865 0.390961 0.022405 0.000000
O21   O     O_3   0.296571 0.550922 0.034469 0.000000
H43   H     H_    0.347636 0.328931 0.183440 0.000000
H44   H     H_    0.261338 0.434795 0.145359 0.000000
H45   H     H_    0.246953 0.369790 0.262299 0.000000
H46   H     H_    0.406024 0.440408 0.218471 0.000000
H47   H     H_    0.463134 0.478070 0.415965 0.000000
H48   H     H_    0.249601 0.393877 0.479582 0.000000
H49   H     H_    0.329442 0.568539 0.093460 0.000000
C57   C     C_3   0.381325 0.803976 0.441429 0.000000
C58   C     C_R   0.435200 0.715980 0.478611 0.000000
C59   C     C_R   0.416089 0.685297 0.593238 0.000000
C60   C     C_R   0.461008 0.601850 0.622161 0.000000
C61   C     C_R   0.528176 0.552641 0.541763 0.000000
N15   N     N_R   0.568466 0.469496 0.538719 0.000000
C62   C     C_R   0.611919 0.451106 0.417986 0.000000
N16   N     N_R   0.606295 0.519908 0.356483 0.000000
C63   C     C_R   0.549060 0.582802 0.432410 0.000000
C64   C     C_R   0.500550 0.663907 0.393822 0.000000
S8    S     S_3+2 0.626703 0.364035 0.315523 0.000000
O22   O     O_2   0.583864 0.319436 0.380296 0.000000
O23   O     O_2   0.717704 0.294599 0.302008 0.000000
O24   O     O_3   0.585508 0.382849 0.154418 0.000000
H50   H     H_    0.315973 0.816476 0.427546 0.000000
H51   H     H_    0.404348 0.816261 0.345198 0.000000
H52   H     H_    0.383664 0.844633 0.523797 0.000000
H53   H     H_    0.362336 0.725704 0.654635 0.000000
H54   H     H_    0.440908 0.574638 0.699053 0.000000
H55   H     H_    0.506447 0.685134 0.294618 0.000000
H56   H     H_    0.542589 0.364844 0.155747 0.000000
C65   C     C_3   0.892101 0.216802 0.084956 0.000000
C66   C     C_R   0.807040 0.268867 0.028042 0.000000
C67   C     C_R   0.780273 0.239225 0.918964 0.000000
C68   C     C_R   0.703303 0.288295 0.859208 0.000000
C69   C     C_R   0.654284 0.367259 0.909139 0.000000
N17   N     N_R   0.580865 0.428336 0.860922 0.000000
C70   C     C_R   0.564037 0.493510 0.948496 0.000000
N18   N     N_R   0.625969 0.474938 0.042381 0.000000
C71   C     C_R   0.680271 0.395007 0.017298 0.000000
C72   C     C_R   0.755780 0.347402 0.080561 0.000000
S9    S     S_3+2 0.473138 0.594618 0.944893 0.000000
O25   O     O_2   0.391639 0.593485 0.909764 0.000000
O26   O     O_2   0.476679 0.650983 0.834768 0.000000
O27   O     O_3   0.450577 0.652834 0.092211 0.000000
H57   H     H_    0.898080 0.157485 0.120500 0.000000
H58   H     H_    0.903096 0.250442 0.170310 0.000000
H59   H     H_    0.939228 0.203486 0.004220 0.000000
H60   H     H_    0.820367 0.177494 0.879081 0.000000
H61   H     H_    0.684343 0.263792 0.776657 0.000000
H62   H     H_    0.775483 0.370446 0.166909 0.000000
H63   H     H_    0.413459 0.638061 0.143696 0.000000
C73   C     C_3   0.830945 0.378465 0.711879 0.000000
C74   C     C_R   0.856095 0.400686 0.843674 0.000000
C75   C     C_R   0.938876 0.380598 0.865524 0.000000
C76   C     C_R   0.961812 0.404444 0.985503 0.000000
C77   C     C_R   0.901713 0.441901 0.084602 0.000000
N19   N     N_R   0.907390 0.476960 0.201716 0.000000
C78   C     C_R   0.831677 0.503898 0.262215 0.000000
N20   N     N_R   0.776494 0.491997 0.181547 0.000000
C79   C     C_R   0.822665 0.454504 0.068951 0.000000
C80   C     C_R   0.796454 0.441641 0.943581 0.000000
S10   S     S_3+2 0.812251 0.550920 0.428799 0.000000
O28   O     O_2   0.883374 0.493174 0.523042 0.000000
O29   O     O_2   0.736772 0.556729 0.505767 0.000000
O30   O     O_3   0.812924 0.642682 0.452646 0.000000
H64   H     H_    0.845456 0.408209 0.627275 0.000000
H65   H     H_    0.762843 0.399754 0.712946 0.000000
H66   H     H_    0.865743 0.310264 0.696907 0.000000
H67   H     H_    0.984765 0.349413 0.786267 0.000000
H68   H     H_    0.025145 0.392452 0.000697 0.000000
H69   H     H_    0.731821 0.467659 0.917376 0.000000
H70   H     H_    0.869245 0.626490 0.489594 0.000000
C81   C     C_3   0.006895 0.747447 0.641311 0.000000
C82   C     C_R   0.957203 0.754621 0.516953 0.000000
C83   C     C_R   0.905682 0.832305 0.462870 0.000000
C84   C     C_R   0.853144 0.840889 0.354804 0.000000
C85   C     C_R   0.855909 0.770304 0.302534 0.000000
N21   N     N_R   0.806740 0.762821 0.206934 0.000000
C86   C     C_R   0.849090 0.680035 0.174564 0.000000
N22   N     N_R   0.917999 0.636119 0.253080 0.000000
C87   C     C_R   0.918286 0.694280 0.337119 0.000000
C88   C     C_R   0.963938 0.683999 0.453394 0.000000
S11   S     S_3+2 0.825399 0.633431 0.033055 0.000000
O31   O     O_2   0.789869 0.693471 0.914148 0.000000
O32   O     O_2   0.755547 0.612297 0.061268 0.000000
O33   O     O_3   0.905610 0.546281 0.960749 0.000000
H71   H     H_    0.048523 0.774241 0.622151 0.000000
H72   H     H_    0.045205 0.681299 0.667247 0.000000
H73   H     H_    0.964085 0.781450 0.726965 0.000000
H74   H     H_    0.904991 0.886505 0.507735 0.000000
H75   H     H_    0.817477 0.899555 0.305865 0.000000
H76   H     H_    0.997267 0.624333 0.500005 0.000000
H77   H     H_    0.904143 0.559950 0.863377 0.000000
C89   C     C_3   0.649548 0.770774 0.640448 0.000000
C90   C     C_R   0.638698 0.736398 0.769169 0.000000
C91   C     C_R   0.624563 0.668943 0.767773 0.000000
C92   C     C_R   0.616533 0.636074 0.889008 0.000000
C93   C     C_R   0.614377 0.677115 0.008049 0.000000
N23   N     N_R   0.615539 0.652140 0.136642 0.000000
C94   C     C_R   0.627630 0.708223 0.213093 0.000000
N24   N     N_R   0.638081 0.763662 0.135960 0.000000
C95   C     C_R   0.628844 0.742732 0.008144 0.000000
C96   C     C_R   0.646229 0.770303 0.890782 0.000000
S12   S     S_3+2 0.642719 0.701136 0.393188 0.000000
O34   O     O_2   0.640306 0.624073 0.341814 0.000000
O35   O     O_2   0.554441 0.771484 0.361578 0.000000
O36   O     O_3   0.711445 0.712733 0.292949 0.000000
H78   H     H_    0.704302 0.722273 0.585930 0.000000
H79   H     H_    0.660397 0.823803 0.663494 0.000000
H80   H     H_    0.592138 0.792554 0.578003 0.000000
H81   H     H_    0.623234 0.639922 0.671927 0.000000
H82   H     H_    0.612829 0.579919 0.889120 0.000000
H83   H     H_    0.670582 0.812945 0.892119 0.000000
H84   H     H_    0.715975 0.756079 0.344774 0.000000

loop_
_geom_bond_atom_site_label_1
_geom_bond_atom_site_label_2
_geom_bond_distance
_geom_bond_site_symmetry_2
_ccdc_geom_bond_type
Zn1   N1    1.995 .      S
Zn1   N3    2.052 .      S
Zn1   N6    2.031 .      S
Zn1   N7    2.028 .      S
Zn2   N2    2.035 .      S
Zn2   N10   2.034 .      S
Zn2   N11   2.012 .      S
Zn2   N14   1.993 .      S
Zn3   N4    2.001 .      S
Zn3   N13   1.955 .      S
Zn3   N15   2.016 .      S
Zn3   N17   1.999 .      S
Zn4   N9    2.000 1_655  S
Zn4   N12   2.007 1_655  S
Zn4   N19   1.948 .      S
Zn4   N22   1.976 .      S
Zn5   N5    2.029 .      S
Zn5   N8    1.996 .      S
Zn5   N21   2.018 .      S
Zn5   N24   1.988 .      S
Zn6   N16   2.006 .      S
Zn6   N18   1.955 .      S
Zn6   N20   1.994 .      S
Zn6   N23   1.984 .      S
C1    C2    1.486 1_554  S
C1    H1    1.109 1_554  S
C1    H2    1.109 .      S
C1    H3    1.109 .      S
C2    C1    1.486 1_556  S
C3    H4    1.081 .      S
C4    H5    1.072 .      S
C6    S1    1.782 .      S
C8    H6    1.081 .      S
S1    O3    1.707 .      S
O3    H7    0.990 .      S
H1    C1    1.109 1_556  S
C9    C10   1.484 .      S
C9    H8    1.109 .      S
C9    H9    1.109 .      S
C9    H10   1.105 .      S
C11   H11   1.081 .      S
C12   H12   1.055 .      S
C14   S2    1.771 .      S
C16   H13   1.080 .      S
S2    O6    1.712 .      S
O6    H14   0.990 1_556  S
H14   O6    0.990 1_554  S
C17   C18   1.487 .      S
C17   H15   1.107 .      S
C17   H16   1.109 .      S
C17   H17   1.109 1_545  S
C19   H18   1.081 .      S
C20   H19   1.079 .      S
C22   S3    1.764 .      S
C24   H20   1.075 .      S
S3    O9    1.727 1_565  S
O9    S3    1.727 1_545  S
O9    H21   0.989 1_545  S
H17   C17   1.109 1_565  S
H21   O9    0.989 1_565  S
C25   C26   1.486 .      S
C25   H22   1.109 .      S
C25   H23   1.109 1_556  S
C25   H24   1.109 1_556  S
C27   H25   1.081 1_565  S
C28   H26   1.070 .      S
C30   S4    1.790 1_556  S
C32   H27   1.074 .      S
S4    C30   1.790 1_554  S
S4    O12   1.711 1_554  S
O12   S4    1.711 1_556  S
O12   H28   0.990 .      S
H23   C25   1.109 1_554  S
H24   C25   1.109 1_554  S
H25   C27   1.081 1_545  S
C33   C34   1.486 .      S
C33   H29   1.109 .      S
C33   H30   1.109 .      S
C33   H31   1.109 .      S
C35   H32   1.081 1_455  S
C36   H33   1.070 .      S
N9    Zn4   2.000 1_455  S
C38   S5    1.800 .      S
C40   H34   1.058 .      S
S5    O15   1.716 .      S
O15   H35   0.989 .      S
H32   C35   1.081 1_655  S
C41   C42   1.483 .      S
C41   H36   1.109 .      S
C41   H37   1.109 .      S
C41   H38   1.109 .      S
C43   H39   1.081 .      S
C44   H40   1.075 1_554  S
C46   S6    1.785 .      S
N12   Zn4   2.007 1_455  S
C48   H41   1.071 .      S
S6    O18   1.716 .      S
O18   H42   0.990 .      S
H40   C44   1.075 1_556  S
C49   C50   1.470 .      S
C49   H43   1.107 .      S
C49   H44   1.108 .      S
C49   H45   1.097 .      S
C51   H46   1.080 .      S
C52   H47   1.071 .      S
C54   S7    1.789 .      S
C56   H48   1.067 .      S
S7    O21   1.716 1_556  S
O21   S7    1.716 1_554  S
O21   H49   0.990 .      S
C57   C58   1.485 .      S
C57   H50   1.109 .      S
C57   H51   1.108 .      S
C57   H52   1.109 .      S
C59   H53   1.081 .      S
C60   H54   1.074 .      S
C62   S8    1.788 .      S
C64   H55   1.081 .      S
S8    O24   1.713 .      S
O24   H56   0.990 .      S
C65   C66   1.486 .      S
C65   H57   1.109 .      S
C65   H58   1.109 .      S
C65   H59   1.109 .      S
C67   H60   1.081 .      S
C68   H61   1.057 .      S
C70   S9    1.800 .      S
C72   H62   1.078 .      S
S9    O27   1.716 1_556  S
O27   S9    1.716 1_554  S
O27   H63   0.990 .      S
C73   C74   1.487 .      S
C73   H64   1.106 .      S
C73   H65   1.109 .      S
C73   H66   1.109 .      S
C75   H67   1.081 .      S
C76   H68   1.078 1_656  S
C78   S10   1.794 .      S
C80   H69   1.068 .      S
S10   O30   1.712 .      S
O30   H70   0.990 .      S
H68   C76   1.078 1_454  S
C81   C82   1.485 1_455  S
C81   H71   1.109 .      S
C81   H72   1.107 .      S
C81   H73   1.109 1_455  S
C82   C81   1.485 1_655  S
C83   H74   1.081 .      S
C84   H75   1.075 .      S
C86   S11   1.780 .      S
C88   H76   1.075 .      S
S11   O33   1.712 1_554  S
O33   S11   1.712 1_556  S
O33   H77   0.990 .      S
H73   C81   1.109 1_655  S
C89   C90   1.481 .      S
C89   H78   1.101 .      S
C89   H79   1.109 .      S
C89   H80   1.108 .      S
C91   H81   1.081 .      S
C92   H82   1.071 .      S
C94   S12   1.785 .      S
C96   H83   1.076 .      S
S12   O36   1.697 .      S
O36   H84   0.978 .      S
C2    C3    1.388 .      A
C2    C8    1.386 .      A
C3    C4    1.382 .      A
C4    C5    1.369 .      A
C5    N1    1.344 .      A
C5    C7    1.362 .      A
N1    C6    1.357 .      A
C6    N2    1.377 .      A
N2    C7    1.360 .      A
C7    C8    1.387 .      A
C10   C11   1.384 .      A
C10   C16   1.378 .      A
C11   C12   1.384 .      A
C12   C13   1.376 .      A
C13   N3    1.362 .      A
C13   C15   1.362 .      A
N3    C14   1.368 .      A
C14   N4    1.369 .      A
N4    C15   1.336 .      A
C15   C16   1.371 .      A
C18   C19   1.390 1_545  A
C18   C24   1.387 .      A
C19   C18   1.390 1_565  A
C19   C20   1.384 .      A
C20   C21   1.372 .      A
C21   N5    1.343 .      A
C21   C23   1.363 .      A
N5    C22   1.375 .      A
C22   N6    1.371 1_565  A
N6    C22   1.371 1_545  A
N6    C23   1.350 1_545  A
C23   N6    1.350 1_565  A
C23   C24   1.375 1_565  A
C24   C23   1.375 1_545  A
C26   C27   1.389 .      A
C26   C32   1.385 1_556  A
C27   C28   1.384 1_565  A
C28   C27   1.384 1_545  A
C28   C29   1.368 1_545  A
C29   C28   1.368 1_565  A
C29   N7    1.345 1_565  A
C29   C31   1.357 .      A
N7    C29   1.345 1_545  A
N7    C30   1.378 1_545  A
C30   N7    1.378 1_565  A
C30   N8    1.372 1_556  A
N8    C30   1.372 1_554  A
N8    C31   1.345 1_554  A
C31   N8    1.345 1_556  A
C31   C32   1.374 1_556  A
C32   C26   1.385 1_554  A
C32   C31   1.374 1_554  A
C34   C35   1.384 .      A
C34   C40   1.380 .      A
C35   C36   1.383 1_455  A
C36   C35   1.383 1_655  A
C36   C37   1.380 1_655  A
C37   C36   1.380 1_455  A
C37   N9    1.349 .      A
C37   C39   1.354 .      A
N9    C38   1.376 .      A
C38   N10   1.376 .      A
N10   C39   1.342 .      A
C39   C40   1.361 .      A
C42   C43   1.391 .      A
C42   C48   1.383 .      A
C43   C44   1.384 .      A
C44   C45   1.370 .      A
C45   N11   1.341 1_554  A
C45   C47   1.351 .      A
N11   C45   1.341 1_556  A
N11   C46   1.377 .      A
C46   N12   1.376 1_556  A
N12   C46   1.376 1_554  A
N12   C47   1.341 .      A
C47   C48   1.369 .      A
C50   C51   1.383 .      A
C50   C56   1.372 .      A
C51   C52   1.379 .      A
C52   C53   1.376 .      A
C53   N13   1.340 .      A
C53   C55   1.352 .      A
N13   C54   1.364 .      A
C54   N14   1.373 .      A
N14   C55   1.339 .      A
C55   C56   1.359 .      A
C58   C59   1.389 .      A
C58   C64   1.385 .      A
C59   C60   1.383 .      A
C60   C61   1.366 .      A
C61   N15   1.342 .      A
C61   C63   1.357 .      A
N15   C62   1.375 .      A
C62   N16   1.374 .      A
N16   C63   1.343 .      A
C63   C64   1.377 .      A
C66   C67   1.385 1_554  A
C66   C72   1.382 .      A
C67   C66   1.385 1_556  A
C67   C68   1.383 .      A
C68   C69   1.373 .      A
C69   N17   1.355 .      A
C69   C71   1.351 1_556  A
N17   C70   1.376 .      A
C70   N18   1.366 1_556  A
N18   C70   1.366 1_554  A
N18   C71   1.339 .      A
C71   C69   1.351 1_554  A
C71   C72   1.375 .      A
C74   C75   1.388 .      A
C74   C80   1.384 .      A
C75   C76   1.382 .      A
C76   C77   1.375 1_556  A
C77   C76   1.375 1_554  A
C77   N19   1.338 .      A
C77   C79   1.355 .      A
N19   C78   1.361 .      A
C78   N20   1.375 .      A
N20   C79   1.355 .      A
C79   C80   1.376 1_554  A
C80   C79   1.376 1_556  A
C82   C83   1.390 .      A
C82   C88   1.387 .      A
C83   C84   1.384 .      A
C84   C85   1.371 .      A
C85   N21   1.346 .      A
C85   C87   1.357 .      A
N21   C86   1.370 .      A
C86   N22   1.361 .      A
N22   C87   1.345 .      A
C87   C88   1.369 .      A
C90   C91   1.389 .      A
C90   C96   1.376 .      A
C91   C92   1.386 .      A
C92   C93   1.372 1_556  A
C93   C92   1.372 1_554  A
C93   N23   1.348 .      A
C93   C95   1.360 .      A
N23   C94   1.370 .      A
C94   N24   1.370 .      A
N24   C95   1.340 .      A
C95   C96   1.368 1_554  A
C96   C95   1.368 1_556  A
S1    O1    1.535 .      D
S1    O2    1.531 .      D
S2    O4    1.530 .      D
S2    O5    1.534 .      D
S3    O7    1.526 .      D
S3    O8    1.536 .      D
S4    O10   1.533 1_564  D
S4    O11   1.536 .      D
O10   S4    1.533 1_546  D
S5    O13   1.536 .      D
S5    O14   1.535 .      D
S6    O16   1.536 .      D
S6    O17   1.536 1_455  D
O17   S6    1.536 1_655  D
S7    O19   1.537 .      D
S7    O20   1.527 1_556  D
O20   S7    1.527 1_554  D
S8    O22   1.532 .      D
S8    O23   1.535 .      D
S9    O25   1.536 .      D
S9    O26   1.536 .      D
S10   O28   1.534 .      D
S10   O29   1.535 .      D
S11   O31   1.532 1_554  D
S11   O32   1.534 .      D
O31   S11   1.532 1_556  D
S12   O34   1.522 .      D
S12   O35   1.536 .      D
