data_str_m1_o12435_ASV
_audit_creation_date              2015-10-01T06:31:45-0700
_symmetry_space_group_name_H-M    P1
_symmetry_Int_Tables_number       1
_space_group_crystal_system       triclinic
loop_
_symmetry_equiv_pos_as_xyz
  x,y,z
_cell_length_a                    13.3747994
_cell_length_b                    17.9274666
_cell_length_c                    18.5112234
_cell_angle_alpha                 88.9310864
_cell_angle_beta                  91.5774280
_cell_angle_gamma                 90.2597096
_cell_volume                      4436.06209614

loop_
_atom_site_label
_atom_site_type_symbol
_atom_site_description
_atom_site_fract_x
_atom_site_fract_y
_atom_site_fract_z
_atom_type_partial_charge
Zn1   Zn    Zn3+2 0.253107 0.611004 0.849419 0.000000
Zn2   Zn    Zn3+2 0.526573 0.376208 0.328535 0.000000
Zn3   Zn    Zn3+2 0.251200 0.108562 0.348174 0.000000
Zn4   Zn    Zn3+2 0.969630 0.370047 0.379113 0.000000
Zn5   Zn    Zn3+2 0.522466 0.594415 0.583607 0.000000
Zn6   Zn    Zn3+2 0.550504 0.635747 0.102564 0.000000
Zn7   Zn    Zn3+2 0.967529 0.635251 0.592157 0.000000
Zn8   Zn    Zn3+2 0.997379 0.577023 0.110987 0.000000
Zn9   Zn    Zn3+2 0.980364 0.835373 0.323247 0.000000
Zn10  Zn    Zn3+2 0.517262 0.834620 0.357412 0.000000
Br1   Br    Br    0.661187 0.197354 0.088366 0.000000
C1    C     C_R   0.556136 0.189977 0.155683 0.000000
C2    C     C_R   0.493352 0.127790 0.155231 0.000000
C3    C     C_R   0.416301 0.121338 0.203493 0.000000
C4    C     C_R   0.403847 0.178777 0.250229 0.000000
N1    N     N_R   0.337394 0.183602 0.302727 0.000000
C5    C     C_R   0.363266 0.248774 0.336705 0.000000
N2    N     N_R   0.443468 0.284192 0.307040 0.000000
C6    C     C_R   0.466754 0.238636 0.252346 0.000000
C7    C     C_R   0.543790 0.246159 0.205101 0.000000
H1    H     H_    0.504919 0.084091 0.116919 0.000000
H2    H     H_    0.367680 0.073059 0.204081 0.000000
H3    H     H_    0.328824 0.267564 0.385187 0.000000
H4    H     H_    0.592818 0.294171 0.205756 0.000000
Br2   Br    Br    0.878267 0.047784 0.360683 0.000000
C8    C     C_R   0.802555 0.136895 0.357211 0.000000
C9    C     C_R   0.699126 0.135780 0.359374 0.000000
C10   C     C_R   0.645689 0.201741 0.354221 0.000000
C11   C     C_R   0.697981 0.267404 0.343489 0.000000
N3    N     N_R   0.664339 0.338273 0.335455 0.000000
C12   C     C_R   0.748681 0.380187 0.343901 0.000000
N4    N     N_R   0.832867 0.338111 0.354404 0.000000
C13   C     C_R   0.798989 0.267841 0.350725 0.000000
C14   C     C_R   0.853278 0.203522 0.355419 0.000000
H5    H     H_    0.660054 0.083285 0.365616 0.000000
H6    H     H_    0.567219 0.199795 0.363679 0.000000
H7    H     H_    0.746700 0.439915 0.346315 0.000000
H8    H     H_    0.932830 0.203207 0.355028 0.000000
Br3   Br    Br    0.494474 0.299137 0.726979 0.000000
C15   C     C_R   0.504234 0.335420 0.629982 0.000000
C16   C     C_R   0.488129 0.287125 0.572931 0.000000
C17   C     C_R   0.497434 0.311594 0.501863 0.000000
C18   C     C_R   0.515874 0.386062 0.490053 0.000000
N5    N     N_R   0.519079 0.423773 0.426465 0.000000
C19   C     C_R   0.535055 0.496080 0.447599 0.000000
N6    N     N_R   0.535343 0.504297 0.521045 0.000000
C20   C     C_R   0.528518 0.433651 0.546035 0.000000
C21   C     C_R   0.526759 0.409641 0.616815 0.000000
H9    H     H_    0.467568 0.230070 0.584666 0.000000
H10   H     H_    0.486536 0.273998 0.457647 0.000000
H11   H     H_    0.537971 0.542668 0.410238 0.000000
H12   H     H_    0.540411 0.447311 0.660829 0.000000
Br4   Br    Br    0.419446 0.365706 0.941045 0.000000
C22   C     C_R   0.419662 0.398144 0.038392 0.000000
C23   C     C_R   0.379002 0.353126 0.091810 0.000000
C24   C     C_R   0.395388 0.369802 0.163825 0.000000
C25   C     C_R   0.455659 0.429844 0.179873 0.000000
N7    N     N_R   0.499977 0.449678 0.243458 0.000000
C26   C     C_R   0.533919 0.520472 0.227839 0.000000
N8    N     N_R   0.515571 0.542543 0.157222 0.000000
C27   C     C_R   0.472586 0.482281 0.128000 0.000000
C28   C     C_R   0.461803 0.466098 0.056131 0.000000
H13   H     H_    0.337193 0.303617 0.077296 0.000000
H14   H     H_    0.355081 0.339891 0.204337 0.000000
H15   H     H_    0.574614 0.554272 0.265796 0.000000
H16   H     H_    0.492154 0.502052 0.015095 0.000000
Br5   Br    Br    0.015289 0.939477 0.015930 0.000000
C29   C     C_R   0.042457 0.981394 0.108301 0.000000
C30   C     C_R   0.101363 0.045379 0.111445 0.000000
C31   C     C_R   0.135911 0.071872 0.177092 0.000000
C32   C     C_R   0.109717 0.032785 0.237964 0.000000
N9    N     N_R   0.150157 0.039998 0.304329 0.000000
C33   C     C_R   0.109998 0.981218 0.342373 0.000000
N10   N     N_R   0.044053 0.938505 0.302406 0.000000
C34   C     C_R   0.046985 0.972213 0.236175 0.000000
C35   C     C_R   0.011886 0.945055 0.171115 0.000000
H17   H     H_    0.124756 0.072315 0.061948 0.000000
H18   H     H_    0.186742 0.118818 0.179969 0.000000
H19   H     H_    0.136314 0.966689 0.396326 0.000000
H20   H     H_    0.967471 0.894729 0.168441 0.000000
Br6   Br    Br    0.725198 0.023484 0.572206 0.000000
C36   C     C_R   0.604974 0.030168 0.514777 0.000000
C37   C     C_R   0.545879 0.093605 0.517743 0.000000
C38   C     C_R   0.457504 0.099906 0.476863 0.000000
C39   C     C_R   0.431620 0.041393 0.433409 0.000000
N11   N     N_R   0.352211 0.035194 0.387557 0.000000
C40   C     C_R   0.368833 0.968376 0.354730 0.000000
N12   N     N_R   0.455061 0.933715 0.378505 0.000000
C41   C     C_R   0.491878 0.980528 0.428564 0.000000
C42   C     C_R   0.578243 0.972514 0.469515 0.000000
H21   H     H_    0.570229 0.138161 0.552421 0.000000
H22   H     H_    0.410875 0.148799 0.479096 0.000000
H23   H     H_    0.320118 0.946325 0.312924 0.000000
H24   H     H_    0.624504 0.923589 0.466193 0.000000
Br7   Br    Br    0.192465 0.101790 0.673720 0.000000
C43   C     C_R   0.146751 0.159536 0.591953 0.000000
C44   C     C_R   0.083288 0.219403 0.601067 0.000000
C45   C     C_R   0.049945 0.262670 0.542472 0.000000
C46   C     C_R   0.081088 0.245437 0.474573 0.000000
N13   N     N_R   0.062928 0.280730 0.409428 0.000000
C47   C     C_R   0.118426 0.238939 0.363956 0.000000
N14   N     N_R   0.167115 0.180067 0.397951 0.000000
C48   C     C_R   0.143116 0.185968 0.466898 0.000000
C49   C     C_R   0.176871 0.141827 0.523682 0.000000
H25   H     H_    0.061429 0.233652 0.654870 0.000000
H26   H     H_    0.009224 0.311655 0.552531 0.000000
H27   H     H_    0.121413 0.250033 0.306454 0.000000
H28   H     H_    0.226607 0.095591 0.515454 0.000000
Br8   Br    Br    0.718333 0.269677 0.615739 0.000000
C50   C     C_R   0.793915 0.357413 0.595009 0.000000
C51   C     C_R   0.805193 0.412238 0.646646 0.000000
C52   C     C_R   0.866292 0.473683 0.634520 0.000000
C53   C     C_R   0.914002 0.478434 0.569858 0.000000
N15   N     N_R   0.972405 0.534151 0.545162 0.000000
C54   C     C_R   0.002529 0.507702 0.479902 0.000000
N16   N     N_R   0.961376 0.439735 0.463020 0.000000
C55   C     C_R   0.903693 0.424402 0.519818 0.000000
C56   C     C_R   0.841468 0.364038 0.529907 0.000000
H29   H     H_    0.765718 0.406308 0.696475 0.000000
H30   H     H_    0.875969 0.516463 0.674238 0.000000
H31   H     H_    0.047587 0.538522 0.442546 0.000000
H32   H     H_    0.835398 0.319993 0.491279 0.000000
Br9   Br    Br    0.330302 0.524286 0.402213 0.000000
C57   C     C_R   0.254203 0.497479 0.321022 0.000000
C58   C     C_R   0.265763 0.535438 0.255784 0.000000
C59   C     C_R   0.189679 0.533843 0.204076 0.000000
C60   C     C_R   0.105889 0.493799 0.220496 0.000000
N17   N     N_R   0.015589 0.498781 0.187792 0.000000
C61   C     C_R   0.957757 0.452290 0.229149 0.000000
N18   N     N_R   0.009251 0.423282 0.288525 0.000000
C62   C     C_R   0.101277 0.450300 0.280763 0.000000
C63   C     C_R   0.174584 0.450693 0.332394 0.000000
H33   H     H_    0.328859 0.572351 0.248504 0.000000
H34   H     H_    0.193501 0.566286 0.154977 0.000000
H35   H     H_    0.877831 0.446260 0.220745 0.000000
H36   H     H_    0.163711 0.423641 0.383832 0.000000
Br10  Br    Br    0.140237 0.658588 0.324169 0.000000
C64   C     C_R   0.226534 0.687967 0.401313 0.000000
C65   C     C_R   0.218468 0.651297 0.467573 0.000000
C66   C     C_R   0.297744 0.649505 0.515717 0.000000
C67   C     C_R   0.381251 0.687093 0.496484 0.000000
N19   N     N_R   0.473323 0.678920 0.524952 0.000000
C68   C     C_R   0.528622 0.729402 0.487033 0.000000
N20   N     N_R   0.474248 0.764356 0.432921 0.000000
C69   C     C_R   0.382429 0.735050 0.439131 0.000000
C70   C     C_R   0.306053 0.735686 0.388379 0.000000
H37   H     H_    0.156190 0.615896 0.478625 0.000000
H38   H     H_    0.294742 0.617624 0.564958 0.000000
H39   H     H_    0.608523 0.735991 0.494602 0.000000
H40   H     H_    0.313445 0.764422 0.336969 0.000000
Br11  Br    Br    0.799889 0.911960 0.737362 0.000000
C71   C     C_R   0.748747 0.822989 0.695055 0.000000
C72   C     C_R   0.646481 0.809212 0.693748 0.000000
C73   C     C_R   0.608385 0.743730 0.665595 0.000000
C74   C     C_R   0.675205 0.694443 0.638513 0.000000
N21   N     N_R   0.655206 0.628692 0.608230 0.000000
C75   C     C_R   0.745210 0.605841 0.584616 0.000000
N22   N     N_R   0.821818 0.652960 0.603544 0.000000
C76   C     C_R   0.774407 0.709405 0.635704 0.000000
C77   C     C_R   0.813830 0.772602 0.665958 0.000000
H41   H     H_    0.596758 0.849567 0.715587 0.000000
H42   H     H_    0.529071 0.732077 0.664979 0.000000
H43   H     H_    0.752456 0.558586 0.550092 0.000000
H44   H     H_    0.892445 0.781929 0.669548 0.000000
Br12  Br    Br    0.203373 0.384501 0.527164 0.000000
C78   C     C_R   0.242835 0.437358 0.610442 0.000000
C79   C     C_R   0.186454 0.435534 0.672167 0.000000
C80   C     C_R   0.215106 0.478319 0.730621 0.000000
C81   C     C_R   0.304536 0.516330 0.727531 0.000000
N23   N     N_R   0.339333 0.567211 0.774081 0.000000
C82   C     C_R   0.417750 0.599952 0.737988 0.000000
N24   N     N_R   0.431868 0.570877 0.670608 0.000000
C83   C     C_R   0.358739 0.518739 0.666315 0.000000
C84   C     C_R   0.326258 0.481836 0.606082 0.000000
H45   H     H_    0.117688 0.403669 0.673207 0.000000
H46   H     H_    0.166632 0.483527 0.775828 0.000000
H47   H     H_    0.456975 0.648776 0.757365 0.000000
H48   H     H_    0.358133 0.491435 0.554442 0.000000
Br13  Br    Br    0.791882 0.913103 0.052084 0.000000
C85   C     C_R   0.697022 0.880146 0.119983 0.000000
C86   C     C_R   0.659285 0.930187 0.168458 0.000000
C87   C     C_R   0.590331 0.906477 0.218154 0.000000
C88   C     C_R   0.554832 0.834739 0.212949 0.000000
N25   N     N_R   0.495224 0.798903 0.259198 0.000000
C89   C     C_R   0.486745 0.728850 0.231066 0.000000
N26   N     N_R   0.541924 0.720512 0.170404 0.000000
C90   C     C_R   0.586560 0.787471 0.162451 0.000000
C91   C     C_R   0.664908 0.806721 0.119765 0.000000
H49   H     H_    0.686359 0.987083 0.168861 0.000000
H50   H     H_    0.563963 0.943805 0.258497 0.000000
H51   H     H_    0.449132 0.682944 0.257664 0.000000
H52   H     H_    0.703157 0.765931 0.088871 0.000000
Br14  Br    Br    0.444590 0.916550 0.796657 0.000000
C92   C     C_R   0.461012 0.832913 0.860951 0.000000
C93   C     C_R   0.540883 0.830363 0.910513 0.000000
C94   C     C_R   0.548714 0.773041 0.961719 0.000000
C95   C     C_R   0.473285 0.721277 0.964900 0.000000
N27   N     N_R   0.461947 0.662324 0.011542 0.000000
C96   C     C_R   0.380687 0.626418 0.981312 0.000000
N28   N     N_R   0.344530 0.659926 0.918605 0.000000
C97   C     C_R   0.401467 0.720474 0.911305 0.000000
C98   C     C_R   0.392977 0.774804 0.858442 0.000000
H53   H     H_    0.597734 0.873376 0.908966 0.000000
H54   H     H_    0.614542 0.767415 0.994398 0.000000
H55   H     H_    0.349482 0.575538 0.002994 0.000000
H56   H     H_    0.332689 0.773920 0.818349 0.000000
Br15  Br    Br    0.860003 0.463410 0.822796 0.000000
C99   C     C_R   0.800646 0.517276 0.897731 0.000000
C100  C     C_R   0.700715 0.537222 0.893005 0.000000
C101  C     C_R   0.657167 0.572798 0.949763 0.000000
C102  C     C_R   0.715912 0.587893 0.010060 0.000000
N29   N     N_R   0.688458 0.616105 0.073418 0.000000
C103  C     C_R   0.774227 0.613210 0.115112 0.000000
N30   N     N_R   0.854067 0.585899 0.079276 0.000000
C104  C     C_R   0.814271 0.569495 0.013779 0.000000
C105  C     C_R   0.858196 0.533679 0.958184 0.000000
H57   H     H_    0.656171 0.523654 0.845396 0.000000
H58   H     H_    0.579410 0.586529 0.945702 0.000000
H59   H     H_    0.776231 0.627064 0.171495 0.000000
H60   H     H_    0.933307 0.514748 0.961113 0.000000
Br16  Br    Br    0.981721 0.041007 0.565533 0.000000
C106  C     C_R   0.016497 0.938977 0.555610 0.000000
C107  C     C_R   0.041406 0.895903 0.616483 0.000000
C108  C     C_R   0.050480 0.819413 0.611151 0.000000
C109  C     C_R   0.037300 0.789100 0.544044 0.000000
N31   N     N_R   0.019931 0.717401 0.527718 0.000000
C110  C     C_R   0.012548 0.719239 0.454318 0.000000
N32   N     N_R   0.018453 0.790222 0.424011 0.000000
C111  C     C_R   0.029970 0.832633 0.483086 0.000000
C112  C     C_R   0.011093 0.907308 0.488064 0.000000
H61   H     H_    0.046431 0.921417 0.668914 0.000000
H62   H     H_    0.062859 0.784930 0.658883 0.000000
H63   H     H_    0.995711 0.668583 0.426819 0.000000
H64   H     H_    0.984464 0.939123 0.442003 0.000000
Br17  Br    Br    0.889341 0.759202 0.969435 0.000000
C113  C     C_R   0.931086 0.714171 0.882865 0.000000
C114  C     C_R   0.860741 0.683351 0.835560 0.000000
C115  C     C_R   0.889557 0.654906 0.770296 0.000000
C116  C     C_R   0.989080 0.659014 0.753804 0.000000
N33   N     N_R   0.034734 0.640612 0.692294 0.000000
C117  C     C_R   0.133959 0.641744 0.713063 0.000000
N34   N     N_R   0.150312 0.660924 0.784152 0.000000
C118  C     C_R   0.058092 0.676218 0.806053 0.000000
C119  C     C_R   0.031698 0.709729 0.868549 0.000000
H65   H     H_    0.782706 0.682714 0.849216 0.000000
H66   H     H_    0.835852 0.625790 0.737174 0.000000
H67   H     H_    0.192699 0.627998 0.676986 0.000000
H68   H     H_    0.087111 0.736449 0.902758 0.000000
Br18  Br    Br    0.356078 0.907004 0.164826 0.000000
C120  C     C_R   0.264172 0.825693 0.167158 0.000000
C121  C     C_R   0.274252 0.767646 0.119610 0.000000
C122  C     C_R   0.202779 0.711905 0.115500 0.000000
C123  C     C_R   0.118629 0.718734 0.155852 0.000000
N35   N     N_R   0.035955 0.675323 0.156081 0.000000
C124  C     C_R   0.976774 0.710267 0.203805 0.000000
N36   N     N_R   0.021920 0.769699 0.237889 0.000000
C125  C     C_R   0.110081 0.774928 0.204127 0.000000
C126  C     C_R   0.185025 0.826856 0.213564 0.000000
H69   H     H_    0.338102 0.766305 0.085171 0.000000
H70   H     H_    0.213606 0.666065 0.080426 0.000000
H71   H     H_    0.902248 0.691616 0.212963 0.000000
H72   H     H_    0.183280 0.868386 0.254233 0.000000
Br19  Br    Br    0.080746 0.253100 0.047283 0.000000
C127  C     C_R   0.115318 0.347817 0.006421 0.000000
C128  C     C_R   0.174234 0.351430 0.945682 0.000000
C129  C     C_R   0.198804 0.419578 0.914297 0.000000
C130  C     C_R   0.162881 0.482737 0.945006 0.000000
N37   N     N_R   0.175271 0.554246 0.923530 0.000000
C131  C     C_R   0.127073 0.592928 0.975545 0.000000
N38   N     N_R   0.084010 0.548818 0.026979 0.000000
C132  C     C_R   0.108359 0.479427 0.006412 0.000000
C133  C     C_R   0.081675 0.412367 0.037614 0.000000
H73   H     H_    0.200494 0.300486 0.922431 0.000000
H74   H     H_    0.244912 0.422409 0.867570 0.000000
H75   H     H_    0.128108 0.652341 0.978861 0.000000
H76   H     H_    0.035085 0.409215 0.084120 0.000000
Br20  Br    Br    0.885437 0.550553 0.343594 0.000000
C134  C     C_R   0.807763 0.636409 0.348140 0.000000
C135  C     C_R   0.706495 0.631654 0.355320 0.000000
C136  C     C_R   0.650016 0.695697 0.355447 0.000000
C137  C     C_R   0.699894 0.763261 0.353261 0.000000
N39   N     N_R   0.663123 0.832482 0.355107 0.000000
C138  C     C_R   0.745041 0.876694 0.341383 0.000000
N40   N     N_R   0.830966 0.836090 0.333050 0.000000
C139  C     C_R   0.798237 0.766160 0.342258 0.000000
C140  C     C_R   0.853366 0.703769 0.340225 0.000000
H77   H     H_    0.673353 0.577315 0.359429 0.000000
H78   H     H_    0.570529 0.690174 0.356090 0.000000
H79   H     H_    0.740542 0.936367 0.335432 0.000000
H80   H     H_    0.930653 0.706140 0.330966 0.000000

loop_
_geom_bond_atom_site_label_1
_geom_bond_atom_site_label_2
_geom_bond_distance
_geom_bond_site_symmetry_2
_ccdc_geom_bond_type
Zn1   N23   2.007 .      S
Zn1   N28   1.962 .      S
Zn1   N34   2.008 .      S
Zn1   N37   2.005 .      S
Zn2   N2    2.024 .      S
Zn2   N3    1.967 .      S
Zn2   N5    2.023 .      S
Zn2   N7    2.059 .      S
Zn3   N1    1.961 .      S
Zn3   N9    1.989 .      S
Zn3   N11   2.003 .      S
Zn3   N14   1.968 .      S
Zn4   N4    1.959 .      S
Zn4   N13   2.093 1_655  S
Zn4   N16   2.017 .      S
Zn4   N18   1.997 1_655  S
Zn5   N6    2.016 .      S
Zn5   N19   1.953 .      S
Zn5   N21   1.922 .      S
Zn5   N24   2.078 .      S
Zn6   N8    1.997 .      S
Zn6   N26   1.995 .      S
Zn6   N27   2.082 .      S
Zn6   N29   1.972 .      S
Zn7   N15   2.027 .      S
Zn7   N22   1.993 .      S
Zn7   N31   2.013 1_655  S
Zn7   N33   2.041 1_655  S
Zn8   N17   1.989 1_655  S
Zn8   N30   1.995 .      S
Zn8   N35   2.023 1_655  S
Zn8   N38   2.037 1_655  S
Zn9   N10   2.066 1_655  S
Zn9   N32   2.071 1_655  S
Zn9   N36   2.077 1_655  S
Zn9   N40   2.011 .      S
Zn10  N12   2.014 .      S
Zn10  N20   1.960 .      S
Zn10  N25   1.953 .      S
Zn10  N39   1.953 .      S
Br1   C1    1.906 .      S
C2    H1    1.081 .      S
C3    H2    1.080 .      S
C5    H3    1.080 .      S
C7    H4    1.080 .      S
Br2   C8    1.894 .      S
C9    H5    1.080 .      S
C10   H6    1.069 .      S
C12   H7    1.073 .      S
C14   H8    1.064 .      S
Br3   C15   1.906 .      S
C16   H9    1.078 .      S
C17   H10   1.076 .      S
C19   H11   1.076 .      S
C21   H12   1.079 .      S
Br4   C22   1.904 1_556  S
C22   Br4   1.904 1_554  S
C23   H13   1.081 .      S
C24   H14   1.070 .      S
C26   H15   1.072 .      S
C28   H16   1.074 .      S
Br5   C29   1.906 .      S
C30   H17   1.081 .      S
C31   H18   1.081 .      S
C33   H19   1.077 .      S
N10   Zn9   2.066 1_455  S
C35   H20   1.079 1_455  S
H20   C35   1.079 1_655  S
Br6   C36   1.906 .      S
C37   H21   1.078 .      S
C38   H22   1.080 .      S
C40   H23   1.077 .      S
C42   H24   1.079 .      S
Br7   C43   1.906 .      S
C44   H25   1.081 .      S
C45   H26   1.058 .      S
N13   Zn4   2.093 1_455  S
C47   H27   1.081 .      S
C49   H28   1.081 .      S
Br8   C50   1.905 .      S
C51   H29   1.079 .      S
C52   H30   1.077 .      S
C54   H31   1.073 .      S
C56   H32   1.076 .      S
Br9   C57   1.861 .      S
C58   H33   1.080 .      S
C59   H34   1.072 .      S
N17   Zn8   1.989 1_455  S
C61   H35   1.081 .      S
N18   Zn4   1.997 1_455  S
C63   H36   1.074 .      S
Br10  C64   1.892 .      S
C65   H37   1.067 .      S
C66   H38   1.068 .      S
C68   H39   1.080 .      S
C70   H40   1.080 .      S
Br11  C71   1.906 .      S
C72   H41   1.077 .      S
C73   H42   1.080 .      S
C75   H43   1.077 .      S
C77   H44   1.064 .      S
Br12  C78   1.886 .      S
C79   H45   1.081 .      S
C80   H46   1.078 .      S
C82   H47   1.080 .      S
C84   H48   1.068 .      S
Br13  C85   1.895 .      S
C86   H49   1.081 .      S
C87   H50   1.079 .      S
C89   H51   1.081 .      S
C91   H52   1.076 .      S
Br14  C92   1.907 .      S
C93   H53   1.081 .      S
C94   H54   1.059 .      S
C96   H55   1.077 1_556  S
C98   H56   1.081 .      S
H55   C96   1.077 1_554  S
Br15  C99   1.899 .      S
C100  H57   1.081 .      S
C101  H58   1.070 .      S
C103  H59   1.077 .      S
C105  H60   1.061 .      S
Br16  C106  1.903 1_645  S
C106  Br16  1.903 1_465  S
C107  H61   1.081 .      S
C108  H62   1.078 .      S
N31   Zn7   2.013 1_455  S
C110  H63   1.069 1_455  S
N32   Zn9   2.071 1_455  S
C112  H64   1.071 1_455  S
H63   C110  1.069 1_655  S
H64   C112  1.071 1_655  S
Br17  C113  1.906 .      S
C114  H65   1.081 .      S
C115  H66   1.072 .      S
N33   Zn7   2.041 1_455  S
C117  H67   1.077 .      S
C119  H68   1.078 .      S
Br18  C120  1.903 .      S
C121  H69   1.080 .      S
C122  H70   1.070 .      S
N35   Zn8   2.023 1_455  S
C124  H71   1.067 .      S
N36   Zn9   2.077 1_455  S
C126  H72   1.069 .      S
Br19  C127  1.906 .      S
C128  H73   1.081 .      S
C129  H74   1.076 .      S
C131  H75   1.068 .      S
N38   Zn8   2.037 1_455  S
C133  H76   1.077 .      S
Br20  C134  1.865 .      S
C135  H77   1.071 .      S
C136  H78   1.068 .      S
C138  H79   1.075 .      S
C140  H80   1.053 .      S
C1    C2    1.393 .      A
C1    C7    1.387 .      A
C2    C3    1.385 .      A
C3    C4    1.371 .      A
C4    N1    1.339 .      A
C4    C6    1.361 .      A
N1    C5    1.376 .      A
C5    N2    1.367 .      A
N2    C6    1.356 .      A
C6    C7    1.374 .      A
C8    C9    1.385 .      A
C8    C14   1.371 .      A
C9    C10   1.385 .      A
C10   C11   1.381 .      A
C11   N3    1.354 .      A
C11   C13   1.354 .      A
N3    C12   1.360 .      A
C12   N4    1.366 .      A
N4    C13   1.339 .      A
C13   C14   1.366 .      A
C15   C16   1.390 .      A
C15   C21   1.382 .      A
C16   C17   1.388 .      A
C17   C18   1.371 .      A
C18   N5    1.348 .      A
C18   C20   1.361 .      A
N5    C19   1.375 .      A
C19   N6    1.370 .      A
N6    C20   1.344 .      A
C20   C21   1.372 .      A
C22   C23   1.386 .      A
C22   C28   1.381 .      A
C23   C24   1.383 .      A
C24   C25   1.374 .      A
C25   N7    1.356 .      A
C25   C27   1.354 .      A
N7    C26   1.374 .      A
C26   N8    1.375 .      A
N8    C27   1.338 .      A
C27   C28   1.371 .      A
C29   C30   1.390 1_565  A
C29   C35   1.393 .      A
C30   C29   1.390 1_545  A
C30   C31   1.380 .      A
C31   C32   1.369 .      A
C32   N9    1.337 .      A
C32   C34   1.370 1_545  A
N9    C33   1.372 1_545  A
C33   N9    1.372 1_565  A
C33   N10   1.375 .      A
N10   C34   1.358 .      A
C34   C32   1.370 1_565  A
C34   C35   1.377 .      A
C36   C37   1.391 .      A
C36   C42   1.382 1_545  A
C37   C38   1.390 .      A
C38   C39   1.371 .      A
C39   N11   1.347 .      A
C39   C41   1.365 1_545  A
N11   C40   1.375 1_545  A
C40   N11   1.375 1_565  A
C40   N12   1.370 .      A
N12   C41   1.344 .      A
C41   C39   1.365 1_565  A
C41   C42   1.371 .      A
C42   C36   1.382 1_565  A
C43   C44   1.387 .      A
C43   C49   1.380 .      A
C44   C45   1.386 .      A
C45   C46   1.376 .      A
C46   N13   1.368 .      A
C46   C48   1.366 .      A
N13   C47   1.373 .      A
C47   N14   1.376 .      A
N14   C48   1.331 .      A
C48   C49   1.372 .      A
C50   C51   1.389 .      A
C50   C56   1.381 .      A
C51   C52   1.387 .      A
C52   C53   1.373 .      A
C53   N15   1.346 .      A
C53   C55   1.357 .      A
N15   C54   1.377 1_655  A
C54   N15   1.377 1_455  A
C54   N16   1.373 1_455  A
N16   C54   1.373 1_655  A
N16   C55   1.345 .      A
C55   C56   1.375 .      A
C57   C58   1.387 .      A
C57   C63   1.371 .      A
C58   C59   1.378 .      A
C59   C60   1.366 .      A
C60   N17   1.339 .      A
C60   C62   1.352 .      A
N17   C61   1.372 1_455  A
C61   N17   1.372 1_655  A
C61   N18   1.376 1_655  A
N18   C61   1.376 1_455  A
N18   C62   1.331 .      A
C62   C63   1.350 .      A
C64   C65   1.387 .      A
C64   C70   1.385 .      A
C65   C66   1.366 .      A
C66   C67   1.354 .      A
C67   N19   1.334 .      A
C67   C69   1.354 .      A
N19   C68   1.363 .      A
C68   N20   1.366 .      A
N20   C69   1.341 .      A
C69   C70   1.369 .      A
C71   C72   1.388 .      A
C71   C77   1.384 .      A
C72   C73   1.383 .      A
C73   C74   1.371 .      A
C74   N21   1.337 .      A
C74   C76   1.355 .      A
N21   C75   1.359 .      A
C75   N22   1.367 .      A
N22   C76   1.353 .      A
C76   C77   1.370 .      A
C78   C79   1.386 .      A
C78   C84   1.372 .      A
C79   C80   1.383 .      A
C80   C81   1.376 .      A
C81   N23   1.340 .      A
C81   C83   1.362 .      A
N23   C82   1.382 .      A
C82   N24   1.379 .      A
N24   C83   1.352 .      A
C83   C84   1.367 .      A
C85   C86   1.387 .      A
C85   C91   1.383 .      A
C86   C87   1.381 .      A
C87   C88   1.373 .      A
C88   N25   1.339 .      A
C88   C90   1.352 .      A
N25   C89   1.372 .      A
C89   N26   1.371 .      A
N26   C90   1.346 .      A
C90   C91   1.369 .      A
C92   C93   1.389 .      A
C92   C98   1.381 .      A
C93   C94   1.387 .      A
C94   C95   1.369 .      A
C95   N27   1.363 1_556  A
C95   C97   1.362 .      A
N27   C95   1.363 1_554  A
N27   C96   1.372 1_554  A
C96   N27   1.372 1_556  A
C96   N28   1.374 .      A
N28   C97   1.330 .      A
C97   C98   1.371 .      A
C99   C100  1.385 .      A
C99   C105  1.376 .      A
C100  C101  1.383 .      A
C101  C102  1.377 1_556  A
C102  C101  1.377 1_554  A
C102  N29   1.347 .      A
C102  C104  1.357 .      A
N29   C103  1.366 .      A
C103  N30   1.370 .      A
N30   C104  1.348 .      A
C104  C105  1.370 1_554  A
C105  C104  1.370 1_556  A
C106  C107  1.388 .      A
C106  C112  1.383 .      A
C107  C108  1.383 .      A
C108  C109  1.372 .      A
C109  N31   1.344 .      A
C109  C111  1.362 .      A
N31   C110  1.359 .      A
C110  N32   1.384 .      A
N32   C111  1.348 .      A
C111  C112  1.369 .      A
C113  C114  1.388 .      A
C113  C119  1.382 1_655  A
C114  C115  1.385 .      A
C115  C116  1.375 .      A
C116  N33   1.354 1_655  A
C116  C118  1.357 1_655  A
N33   C116  1.354 1_455  A
N33   C117  1.372 .      A
C117  N34   1.378 .      A
N34   C118  1.340 .      A
C118  C116  1.357 1_455  A
C118  C119  1.369 .      A
C119  C113  1.382 1_455  A
C120  C121  1.385 .      A
C120  C126  1.382 .      A
C121  C122  1.381 .      A
C122  C123  1.375 .      A
C123  N35   1.349 .      A
C123  C125  1.366 .      A
N35   C124  1.365 1_455  A
C124  N35   1.365 1_655  A
C124  N36   1.377 1_655  A
N36   C124  1.377 1_455  A
N36   C125  1.352 .      A
C125  C126  1.375 .      A
C127  C128  1.391 1_554  A
C127  C133  1.385 .      A
C128  C127  1.391 1_556  A
C128  C129  1.385 .      A
C129  C130  1.371 .      A
C130  N37   1.346 .      A
C130  C132  1.368 1_556  A
N37   C131  1.374 .      A
C131  N38   1.364 1_556  A
N38   C131  1.364 1_554  A
N38   C132  1.352 .      A
C132  C130  1.368 1_554  A
C132  C133  1.374 .      A
C134  C135  1.367 .      A
C134  C140  1.358 .      A
C135  C136  1.377 .      A
C136  C137  1.381 .      A
C137  N39   1.338 .      A
C137  C139  1.337 .      A
N39   C138  1.376 .      A
C138  N40   1.377 .      A
N40   C139  1.335 .      A
C139  C140  1.344 .      A
