data_str_m1_o12435_NPO
_audit_creation_date              2015-10-01T06:34:03-0700
_symmetry_space_group_name_H-M    P1
_symmetry_Int_Tables_number       1
_space_group_crystal_system       triclinic
loop_
_symmetry_equiv_pos_as_xyz
  x,y,z
_cell_length_a                    18.0306192
_cell_length_b                    18.0910040
_cell_length_c                    9.85859347
_cell_angle_alpha                 90.9429269
_cell_angle_beta                  90.4533424
_cell_angle_gamma                 60.7647801
_cell_volume                      2805.79297475

loop_
_atom_site_label
_atom_site_type_symbol
_atom_site_description
_atom_site_fract_x
_atom_site_fract_y
_atom_site_fract_z
_atom_type_partial_charge
Zn1   Zn    Zn3+2 0.549883 0.083539 0.649172 0.000000
Zn2   Zn    Zn3+2 0.230493 0.412938 0.721635 0.000000
Zn3   Zn    Zn3+2 0.553637 0.405296 0.663343 0.000000
Zn4   Zn    Zn3+2 0.995486 0.526139 0.220556 0.000000
Zn5   Zn    Zn3+2 0.663464 0.847713 0.152250 0.000000
Zn6   Zn    Zn3+2 0.681096 0.514656 0.165809 0.000000
Br1   Br    Br    0.381797 0.024098 0.138915 0.000000
C1    C     C_R   0.355424 0.111035 0.010363 0.000000
C2    C     C_R   0.282925 0.189434 0.028961 0.000000
C3    C     C_R   0.262435 0.254076 0.937901 0.000000
C4    C     C_R   0.315452 0.237157 0.828934 0.000000
N1    N     N_R   0.310626 0.290855 0.732457 0.000000
C5    C     C_R   0.382382 0.244296 0.657029 0.000000
N2    N     N_R   0.431682 0.164170 0.704722 0.000000
C6    C     C_R   0.387311 0.161187 0.811853 0.000000
C7    C     C_R   0.409156 0.096276 0.901044 0.000000
H1    H     H_    0.242592 0.200172 0.115965 0.000000
H2    H     H_    0.207503 0.315760 0.953637 0.000000
H3    H     H_    0.400407 0.269824 0.572964 0.000000
H4    H     H_    0.465471 0.035712 0.886384 0.000000
Br2   Br    Br    0.891147 0.995189 0.346986 0.000000
C8    C     C_R   0.799050 0.089464 0.435360 0.000000
C9    C     C_R   0.797830 0.167086 0.442411 0.000000
C10   C     C_R   0.730892 0.236990 0.504220 0.000000
C11   C     C_R   0.667239 0.226042 0.558600 0.000000
N3    N     N_R   0.595906 0.284046 0.621112 0.000000
C12   C     C_R   0.556313 0.238960 0.653930 0.000000
N4    N     N_R   0.599993 0.156235 0.615830 0.000000
C13   C     C_R   0.669362 0.149665 0.554422 0.000000
C14   C     C_R   0.733912 0.080151 0.491749 0.000000
H5    H     H_    0.849293 0.173031 0.398136 0.000000
H6    H     H_    0.728976 0.297634 0.509279 0.000000
H7    H     H_    0.498357 0.263441 0.708835 0.000000
H8    H     H_    0.733446 0.020840 0.485627 0.000000
Br3   Br    Br    0.413903 0.781908 0.452776 0.000000
C15   C     C_R   0.454360 0.861372 0.465565 0.000000
C16   C     C_R   0.427597 0.919849 0.572193 0.000000
C17   C     C_R   0.457737 0.976742 0.584364 0.000000
C18   C     C_R   0.512184 0.974498 0.486040 0.000000
N5    N     N_R   0.550493 0.021754 0.481866 0.000000
C19   C     C_R   0.599568 0.993209 0.367016 0.000000
N6    N     N_R   0.596218 0.926234 0.305419 0.000000
C20   C     C_R   0.539212 0.917402 0.382016 0.000000
C21   C     C_R   0.511956 0.858617 0.370538 0.000000
H9    H     H_    0.383680 0.920317 0.646656 0.000000
H10   H     H_    0.438223 0.022124 0.667314 0.000000
H11   H     H_    0.640248 0.017704 0.333913 0.000000
H12   H     H_    0.534021 0.811075 0.292245 0.000000
Br4   Br    Br    0.755540 0.734319 0.446044 0.000000
C22   C     C_R   0.723534 0.787654 0.620154 0.000000
C23   C     C_R   0.738679 0.738323 0.734139 0.000000
C24   C     C_R   0.715298 0.776250 0.860845 0.000000
C25   C     C_R   0.677712 0.862726 0.869153 0.000000
N7    N     N_R   0.647274 0.910726 0.981015 0.000000
C26   C     C_R   0.606068 0.991846 0.931711 0.000000
N8    N     N_R   0.610828 0.994316 0.792648 0.000000
C27   C     C_R   0.658299 0.911580 0.758075 0.000000
C28   C     C_R   0.682737 0.875213 0.631686 0.000000
H13   H     H_    0.768148 0.670200 0.723694 0.000000
H14   H     H_    0.722648 0.739591 0.949566 0.000000
H15   H     H_    0.568825 0.047230 0.994665 0.000000
H16   H     H_    0.672838 0.912598 0.544484 0.000000
Br5   Br    Br    0.890572 0.317911 0.549139 0.000000
C29   C     C_R   0.973669 0.353863 0.563253 0.000000
C30   C     C_R   0.031400 0.325777 0.669654 0.000000
C31   C     C_R   0.092020 0.351377 0.681585 0.000000
C32   C     C_R   0.092425 0.404977 0.585250 0.000000
N9    N     N_R   0.146081 0.436069 0.576539 0.000000
C33   C     C_R   0.122304 0.481036 0.458733 0.000000
N10   N     N_R   0.054580 0.479776 0.396585 0.000000
C34   C     C_R   0.037448 0.431320 0.479420 0.000000
C35   C     C_R   0.976461 0.406943 0.466405 0.000000
H17   H     H_    0.028911 0.283396 0.742838 0.000000
H18   H     H_    0.138578 0.328350 0.761877 0.000000
H19   H     H_    0.155105 0.512006 0.417583 0.000000
H20   H     H_    0.931411 0.427654 0.385408 0.000000
Br6   Br    Br    0.346693 0.608152 0.070817 0.000000
C36   C     C_R   0.259725 0.577304 0.077683 0.000000
C37   C     C_R   0.201048 0.607675 0.182901 0.000000
C38   C     C_R   0.137894 0.585372 0.190388 0.000000
C39   C     C_R   0.135719 0.532878 0.090478 0.000000
N11   N     N_R   0.080109 0.504100 0.077083 0.000000
C40   C     C_R   0.102520 0.460377 0.956085 0.000000
N12   N     N_R   0.171357 0.459830 0.897059 0.000000
C41   C     C_R   0.190854 0.505617 0.984829 0.000000
C42   C     C_R   0.254815 0.525929 0.976590 0.000000
H21   H     H_    0.204791 0.649312 0.258732 0.000000
H22   H     H_    0.090512 0.610608 0.269394 0.000000
H23   H     H_    0.068246 0.431388 0.910355 0.000000
H24   H     H_    0.300623 0.502939 0.896142 0.000000
Br7   Br    Br    0.311286 0.737549 0.376459 0.000000
C43   C     C_R   0.304599 0.650346 0.472266 0.000000
C44   C     C_R   0.225725 0.655642 0.492364 0.000000
C45   C     C_R   0.219522 0.592140 0.559233 0.000000
C46   C     C_R   0.293115 0.526986 0.609679 0.000000
N13   N     N_R   0.302581 0.460824 0.682060 0.000000
C47   C     C_R   0.385498 0.421684 0.719503 0.000000
N14   N     N_R   0.429612 0.456915 0.664369 0.000000
C48   C     C_R   0.369550 0.524017 0.596958 0.000000
C49   C     C_R   0.378033 0.583426 0.524152 0.000000
H25   H     H_    0.168649 0.710222 0.456902 0.000000
H26   H     H_    0.158603 0.596109 0.576903 0.000000
H27   H     H_    0.410691 0.372034 0.792743 0.000000
H28   H     H_    0.438902 0.579695 0.509977 0.000000
Br8   Br    Br    0.473942 0.754570 0.786408 0.000000
C50   C     C_R   0.534210 0.672087 0.648878 0.000000
C51   C     C_R   0.575971 0.690562 0.548174 0.000000
C52   C     C_R   0.614162 0.634798 0.440653 0.000000
C53   C     C_R   0.613592 0.559384 0.442039 0.000000
N15   N     N_R   0.641469 0.498610 0.345365 0.000000
C54   C     C_R   0.624825 0.438584 0.398972 0.000000
N16   N     N_R   0.588051 0.460987 0.524658 0.000000
C55   C     C_R   0.579653 0.538175 0.546519 0.000000
C56   C     C_R   0.534871 0.595145 0.647992 0.000000
H29   H     H_    0.576502 0.750008 0.551774 0.000000
H30   H     H_    0.644177 0.649867 0.360154 0.000000
H31   H     H_    0.635406 0.381454 0.346552 0.000000
H32   H     H_    0.496471 0.582918 0.718150 0.000000
Br9   Br    Br    0.702614 0.105586 0.024868 0.000000
C57   C     C_R   0.686421 0.217872 0.031762 0.000000
C58   C     C_R   0.721326 0.242238 0.137985 0.000000
C59   C     C_R   0.710630 0.323331 0.143894 0.000000
C60   C     C_R   0.663599 0.377952 0.043225 0.000000
N17   N     N_R   0.648884 0.457250 0.026583 0.000000
C61   C     C_R   0.610021 0.479028 0.903117 0.000000
N18   N     N_R   0.598480 0.416064 0.844360 0.000000
C62   C     C_R   0.632829 0.353499 0.936067 0.000000
C63   C     C_R   0.642537 0.273443 0.928333 0.000000
H33   H     H_    0.758177 0.197126 0.215064 0.000000
H34   H     H_    0.742334 0.341411 0.220294 0.000000
H35   H     H_    0.594411 0.538248 0.856769 0.000000
H36   H     H_    0.617707 0.253464 0.845363 0.000000
Br10  Br    Br    0.114469 0.187625 0.906482 0.000000
C64   C     C_R   0.011695 0.279613 0.975609 0.000000
C65   C     C_R   0.935007 0.279643 0.956990 0.000000
C66   C     C_R   0.860399 0.343186 0.013712 0.000000
C67   C     C_R   0.865396 0.405001 0.089135 0.000000
N19   N     N_R   0.803919 0.469735 0.161026 0.000000
C68   C     C_R   0.844648 0.509204 0.216946 0.000000
N20   N     N_R   0.926837 0.474494 0.176648 0.000000
C69   C     C_R   0.939436 0.407206 0.100664 0.000000
C70   C     C_R   0.014250 0.345062 0.046498 0.000000
H37   H     H_    0.933929 0.228560 0.900168 0.000000
H38   H     H_    0.801484 0.342416 0.001174 0.000000
H39   H     H_    0.818177 0.557626 0.294629 0.000000
H40   H     H_    0.073601 0.344741 0.064283 0.000000
Br11  Br    Br    0.830419 0.924288 0.636913 0.000000
C71   C     C_R   0.860123 0.835001 0.507010 0.000000
C72   C     C_R   0.933877 0.758284 0.526784 0.000000
C73   C     C_R   0.956890 0.691693 0.435671 0.000000
C74   C     C_R   0.904798 0.704857 0.326089 0.000000
N21   N     N_R   0.911892 0.648062 0.231034 0.000000
C75   C     C_R   0.839931 0.690810 0.154977 0.000000
N22   N     N_R   0.787384 0.771920 0.201461 0.000000
C76   C     C_R   0.831361 0.779047 0.307784 0.000000
C77   C     C_R   0.807682 0.845828 0.396418 0.000000
H41   H     H_    0.973107 0.750385 0.614771 0.000000
H42   H     H_    0.012756 0.631116 0.452225 0.000000
H43   H     H_    0.825367 0.660534 0.071978 0.000000
H44   H     H_    0.751077 0.904621 0.378768 0.000000
Br12  Br    Br    0.319867 0.738662 0.946539 0.000000
C78   C     C_R   0.415728 0.750724 0.996847 0.000000
C79   C     C_R   0.411030 0.829789 0.988521 0.000000
C80   C     C_R   0.479699 0.840409 0.025203 0.000000
C81   C     C_R   0.551570 0.770397 0.069195 0.000000
N23   N     N_R   0.623639 0.765898 0.117549 0.000000
C82   C     C_R   0.671376 0.683457 0.151591 0.000000
N24   N     N_R   0.632093 0.636466 0.128029 0.000000
C83   C     C_R   0.556392 0.692993 0.076515 0.000000
C84   C     C_R   0.489503 0.680734 0.040777 0.000000
H45   H     H_    0.353050 0.883502 0.953581 0.000000
H46   H     H_    0.476626 0.901443 0.020065 0.000000
H47   H     H_    0.731572 0.660509 0.198932 0.000000
H48   H     H_    0.493648 0.619287 0.048488 0.000000

loop_
_geom_bond_atom_site_label_1
_geom_bond_atom_site_label_2
_geom_bond_distance
_geom_bond_site_symmetry_2
_ccdc_geom_bond_type
Zn1   N2    1.981 .      S
Zn1   N4    1.958 .      S
Zn1   N5    1.974 .      S
Zn1   N8    2.033 1_545  S
Zn2   N1    1.966 .      S
Zn2   N9    1.975 .      S
Zn2   N12   1.986 .      S
Zn2   N13   1.926 .      S
Zn3   N3    1.977 .      S
Zn3   N14   1.958 .      S
Zn3   N16   1.985 .      S
Zn3   N18   1.999 .      S
Zn4   N10   1.999 1_655  S
Zn4   N11   1.977 1_655  S
Zn4   N20   1.924 .      S
Zn4   N21   1.974 .      S
Zn5   N6    2.011 .      S
Zn5   N7    1.991 1_554  S
Zn5   N22   2.030 .      S
Zn5   N23   1.960 .      S
Zn6   N15   1.992 .      S
Zn6   N17   1.957 .      S
Zn6   N19   1.952 .      S
Zn6   N24   1.974 .      S
Br1   C1    1.906 .      S
C2    H1    1.081 .      S
C3    H2    1.080 .      S
C5    H3    1.081 .      S
C7    H4    1.078 .      S
Br2   C8    1.906 1_565  S
C8    Br2   1.906 1_545  S
C9    H5    1.081 .      S
C10   H6    1.081 .      S
C12   H7    1.063 .      S
C14   H8    1.078 .      S
Br3   C15   1.906 .      S
C16   H9    1.081 .      S
C17   H10   1.080 1_565  S
C19   H11   1.080 1_565  S
C21   H12   1.069 .      S
H10   C17   1.080 1_545  S
H11   C19   1.080 1_545  S
Br4   C22   1.905 .      S
C23   H13   1.081 .      S
C24   H14   1.074 .      S
N7    Zn5   1.991 1_556  S
C26   H15   1.081 1_565  S
N8    Zn1   2.033 1_565  S
C28   H16   1.062 .      S
H15   C26   1.081 1_545  S
Br5   C29   1.906 .      S
C30   H17   1.078 .      S
C31   H18   1.079 .      S
C33   H19   1.079 .      S
N10   Zn4   1.999 1_455  S
C35   H20   1.068 .      S
Br6   C36   1.906 .      S
C37   H21   1.078 .      S
C38   H22   1.078 .      S
N11   Zn4   1.977 1_455  S
C40   H23   1.079 .      S
C42   H24   1.072 .      S
Br7   C43   1.906 .      S
C44   H25   1.081 .      S
C45   H26   1.081 .      S
C47   H27   1.073 .      S
C49   H28   1.076 .      S
Br8   C50   1.902 .      S
C51   H29   1.080 .      S
C52   H30   1.075 .      S
C54   H31   1.078 .      S
C56   H32   1.081 .      S
Br9   C57   1.906 .      S
C58   H33   1.081 .      S
C59   H34   1.081 .      S
C61   H35   1.075 .      S
C63   H36   1.069 .      S
Br10  C64   1.907 .      S
C65   H37   1.081 .      S
C66   H38   1.075 .      S
C68   H39   1.076 .      S
C70   H40   1.080 .      S
Br11  C71   1.906 .      S
C72   H41   1.081 .      S
C73   H42   1.080 1_655  S
C75   H43   1.077 .      S
C77   H44   1.071 .      S
H42   C73   1.080 1_455  S
Br12  C78   1.906 .      S
C79   H45   1.081 .      S
C80   H46   1.080 .      S
C82   H47   1.061 .      S
C84   H48   1.081 .      S
C1    C2    1.392 .      A
C1    C7    1.388 1_554  A
C2    C3    1.385 1_554  A
C3    C2    1.385 1_556  A
C3    C4    1.372 .      A
C4    N1    1.343 .      A
C4    C6    1.361 .      A
N1    C5    1.366 .      A
C5    N2    1.367 .      A
N2    C6    1.348 .      A
C6    C7    1.373 .      A
C7    C1    1.388 1_556  A
C8    C9    1.394 .      A
C8    C14   1.387 .      A
C9    C10   1.387 .      A
C10   C11   1.371 .      A
C11   N3    1.345 .      A
C11   C13   1.363 .      A
N3    C12   1.364 .      A
C12   N4    1.355 .      A
N4    C13   1.345 .      A
C13   C14   1.369 .      A
C15   C16   1.389 .      A
C15   C21   1.386 .      A
C16   C17   1.382 .      A
C17   C18   1.371 .      A
C18   N5    1.337 1_565  A
C18   C20   1.356 .      A
N5    C18   1.337 1_545  A
N5    C19   1.372 1_545  A
C19   N5    1.372 1_565  A
C19   N6    1.374 .      A
N6    C20   1.352 .      A
C20   C21   1.375 .      A
C22   C23   1.387 .      A
C22   C28   1.386 .      A
C23   C24   1.381 .      A
C24   C25   1.369 .      A
C25   N7    1.336 .      A
C25   C27   1.351 .      A
N7    C26   1.376 .      A
C26   N8    1.377 .      A
N8    C27   1.351 .      A
C27   C28   1.370 .      A
C29   C30   1.388 1_655  A
C29   C35   1.384 .      A
C30   C29   1.388 1_455  A
C30   C31   1.383 .      A
C31   C32   1.371 .      A
C32   N9    1.339 .      A
C32   C34   1.355 .      A
N9    C33   1.370 .      A
C33   N10   1.372 .      A
N10   C34   1.350 .      A
C34   C35   1.375 1_455  A
C35   C34   1.375 1_655  A
C36   C37   1.389 .      A
C36   C42   1.383 1_554  A
C37   C38   1.384 .      A
C38   C39   1.371 .      A
C39   N11   1.341 .      A
C39   C41   1.355 1_554  A
N11   C40   1.370 1_554  A
C40   N11   1.370 1_556  A
C40   N12   1.371 .      A
N12   C41   1.347 .      A
C41   C39   1.355 1_556  A
C41   C42   1.374 .      A
C42   C36   1.383 1_556  A
C43   C44   1.393 .      A
C43   C49   1.387 .      A
C44   C45   1.385 .      A
C45   C46   1.371 .      A
C46   N13   1.341 .      A
C46   C48   1.359 .      A
N13   C47   1.356 .      A
C47   N14   1.359 .      A
N14   C48   1.349 .      A
C48   C49   1.372 .      A
C50   C51   1.390 .      A
C50   C56   1.386 .      A
C51   C52   1.383 .      A
C52   C53   1.370 .      A
C53   N15   1.343 .      A
C53   C55   1.355 .      A
N15   C54   1.374 .      A
C54   N16   1.369 .      A
N16   C55   1.343 .      A
C55   C56   1.371 .      A
C57   C58   1.390 .      A
C57   C63   1.386 1_554  A
C58   C59   1.383 .      A
C59   C60   1.371 .      A
C60   N17   1.338 .      A
C60   C62   1.354 1_554  A
N17   C61   1.364 1_554  A
C61   N17   1.364 1_556  A
C61   N18   1.373 .      A
N18   C62   1.350 .      A
C62   C60   1.354 1_556  A
C62   C63   1.372 .      A
C63   C57   1.386 1_556  A
C64   C65   1.393 1_455  A
C64   C70   1.385 1_556  A
C65   C64   1.393 1_655  A
C65   C66   1.387 1_556  A
C66   C65   1.387 1_554  A
C66   C67   1.372 .      A
C67   N19   1.349 .      A
C67   C69   1.359 .      A
N19   C68   1.359 .      A
C68   N20   1.357 .      A
N20   C69   1.341 .      A
C69   C70   1.371 1_655  A
C70   C64   1.385 1_554  A
C70   C69   1.371 1_455  A
C71   C72   1.391 .      A
C71   C77   1.390 .      A
C72   C73   1.383 .      A
C73   C74   1.371 .      A
C74   N21   1.339 .      A
C74   C76   1.362 .      A
N21   C75   1.367 .      A
C75   N22   1.374 .      A
N22   C76   1.351 .      A
C76   C77   1.368 .      A
C78   C79   1.395 .      A
C78   C84   1.387 1_556  A
C79   C80   1.387 1_556  A
C80   C79   1.387 1_554  A
C80   C81   1.370 .      A
C81   N23   1.346 .      A
C81   C83   1.363 .      A
N23   C82   1.355 .      A
C82   N24   1.363 .      A
N24   C83   1.345 .      A
C83   C84   1.371 .      A
C84   C78   1.387 1_554  A
